Warning: file 'memory.vmh' for memory 'dMem' has a gap at addresses 49 to 67108863.
Warning: file 'memory.vmh' for memory 'iMem' has a gap at addresses 49 to 67108863.

Cycle                    0 ----------------------------------------------------

cycle          0
Fetch : from Pc                    0 , expanded inst : 30f40002000000000000, 
irmovq $'h0000000000000200,  %'h4

Cycle                    1 ----------------------------------------------------

cycle          1
Decode : from Pc                    0 , expanded inst : 30f40002000000000000, 
irmovq $'h0000000000000200,  %'h4
Exec : ppc                   10

Cycle                    2 ----------------------------------------------------

cycle          2
On  4, writes                  512	 (wrE)
Stat update

Cycle                    3 ----------------------------------------------------

cycle          3
Fetch : from Pc                   10 , expanded inst : 80280100000000000030, 
call 'h0000000000000128

Cycle                    4 ----------------------------------------------------

cycle          4
Decode : from Pc                   10 , expanded inst : 80280100000000000030, 
call 'h0000000000000128
Exec : ppc                   19

Cycle                    5 ----------------------------------------------------

cycle          5
Stored                   19 into                  504

Cycle                    6 ----------------------------------------------------

cycle          6
On  4, writes                  504	 (wrE)
Stat update

Cycle                    7 ----------------------------------------------------

cycle          7
Fetch : from Pc                  296 , expanded inst : 30f72800000000000000, 
irmovq $'h0000000000000028,  %'h7

Cycle                    8 ----------------------------------------------------

cycle          8
Decode : from Pc                  296 , expanded inst : 30f72800000000000000, 
irmovq $'h0000000000000028,  %'h7
Exec : ppc                  306

Cycle                    9 ----------------------------------------------------

cycle          9
On  7, writes                   40	 (wrE)
Stat update

Cycle                   10 ----------------------------------------------------

cycle         10
Fetch : from Pc                  306 , expanded inst : 30f62000000000000000, 
irmovq $'h0000000000000020,  %'h6

Cycle                   11 ----------------------------------------------------

cycle         11
Decode : from Pc                  306 , expanded inst : 30f62000000000000000, 
irmovq $'h0000000000000020,  %'h6
Exec : ppc                  316

Cycle                   12 ----------------------------------------------------

cycle         12
On  6, writes                   32	 (wrE)
Stat update

Cycle                   13 ----------------------------------------------------

cycle         13
Fetch : from Pc                  316 , expanded inst : 80460100000000000090, 
call 'h0000000000000146

Cycle                   14 ----------------------------------------------------

cycle         14
Decode : from Pc                  316 , expanded inst : 80460100000000000090, 
call 'h0000000000000146
Exec : ppc                  325

Cycle                   15 ----------------------------------------------------

cycle         15
Stored                  325 into                  496

Cycle                   16 ----------------------------------------------------

cycle         16
On  4, writes                  496	 (wrE)
Stat update

Cycle                   17 ----------------------------------------------------

cycle         17
Fetch : from Pc                  326 , expanded inst : 30f80800000000000000, 
irmovq $'h0000000000000008,  %'h8

Cycle                   18 ----------------------------------------------------

cycle         18
Decode : from Pc                  326 , expanded inst : 30f80800000000000000, 
irmovq $'h0000000000000008,  %'h8
Exec : ppc                  336

Cycle                   19 ----------------------------------------------------

cycle         19
On  8, writes                    8	 (wrE)
Stat update

Cycle                   20 ----------------------------------------------------

cycle         20
Fetch : from Pc                  336 , expanded inst : 30f90100000000000000, 
irmovq $'h0000000000000001,  %'h9

Cycle                   21 ----------------------------------------------------

cycle         21
Decode : from Pc                  336 , expanded inst : 30f90100000000000000, 
irmovq $'h0000000000000001,  %'h9
Exec : ppc                  346

Cycle                   22 ----------------------------------------------------

cycle         22
On  9, writes                    1	 (wrE)
Stat update

Cycle                   23 ----------------------------------------------------

cycle         23
Fetch : from Pc                  346 , expanded inst : 63006266707701000000, 
xorq %'h0, %'h0

Cycle                   24 ----------------------------------------------------

cycle         24
Decode : from Pc                  346 , expanded inst : 63006266707701000000, 
xorq %'h0, %'h0
Exec : ppc                  348

Cycle                   25 ----------------------------------------------------

cycle         25
On  0, writes                    0	 (wrE)
Stat update

Cycle                   26 ----------------------------------------------------

cycle         26
Fetch : from Pc                  348 , expanded inst : 62667077010000000000, 
andq %'h6, %'h6

Cycle                   27 ----------------------------------------------------

cycle         27
Decode : from Pc                  348 , expanded inst : 62667077010000000000, 
andq %'h6, %'h6
Exec : ppc                  350

Cycle                   28 ----------------------------------------------------

cycle         28
On  6, writes                   32	 (wrE)
Stat update

Cycle                   29 ----------------------------------------------------

cycle         29
Fetch : from Pc                  350 , expanded inst : 70770100000000000050, 
jmp $'h0000000000000177

Cycle                   30 ----------------------------------------------------

cycle         30
Decode : from Pc                  350 , expanded inst : 70770100000000000050, 
jmp $'h0000000000000177
Exec : ppc                  359

Cycle                   31 ----------------------------------------------------

cycle         31
Stat update

Cycle                   32 ----------------------------------------------------

cycle         32
Fetch : from Pc                  375 , expanded inst : 74670100000000000090, 
jne $'h0000000000000167

Cycle                   33 ----------------------------------------------------

cycle         33
Decode : from Pc                  375 , expanded inst : 74670100000000000090, 
jne $'h0000000000000167
Exec : ppc                  384

Cycle                   34 ----------------------------------------------------

cycle         34
Stat update

Cycle                   35 ----------------------------------------------------

cycle         35
Fetch : from Pc                  359 , expanded inst : 50a70000000000000000, 
mrmovq 'h0000000000000000(%'h7), %'ha

Cycle                   36 ----------------------------------------------------

cycle         36
Decode : from Pc                  359 , expanded inst : 50a70000000000000000, 
mrmovq 'h0000000000000000(%'h7), %'ha
Exec : ppc                  369

Cycle                   37 ----------------------------------------------------

cycle         37
Loaded                    1 from                   40

Cycle                   38 ----------------------------------------------------

cycle         38
On 10, writes                    1	 (wrM)
Stat update

Cycle                   39 ----------------------------------------------------

cycle         39
Fetch : from Pc                  369 , expanded inst : 60a06087619674670100, 
addq %'ha, %'h0

Cycle                   40 ----------------------------------------------------

cycle         40
Decode : from Pc                  369 , expanded inst : 60a06087619674670100, 
addq %'ha, %'h0
Exec : ppc                  371

Cycle                   41 ----------------------------------------------------

cycle         41
On  0, writes                    1	 (wrE)
Stat update

Cycle                   42 ----------------------------------------------------

cycle         42
Fetch : from Pc                  371 , expanded inst : 60876196746701000000, 
addq %'h8, %'h7

Cycle                   43 ----------------------------------------------------

cycle         43
Decode : from Pc                  371 , expanded inst : 60876196746701000000, 
addq %'h8, %'h7
Exec : ppc                  373

Cycle                   44 ----------------------------------------------------

cycle         44
On  7, writes                   48	 (wrE)
Stat update

Cycle                   45 ----------------------------------------------------

cycle         45
Fetch : from Pc                  373 , expanded inst : 61967467010000000000, 
subq %'h9, %'h6

Cycle                   46 ----------------------------------------------------

cycle         46
Decode : from Pc                  373 , expanded inst : 61967467010000000000, 
subq %'h9, %'h6
Exec : ppc                  375

Cycle                   47 ----------------------------------------------------

cycle         47
On  6, writes                   31	 (wrE)
Stat update

Cycle                   48 ----------------------------------------------------

cycle         48
Fetch : from Pc                  375 , expanded inst : 74670100000000000090, 
jne $'h0000000000000167

Cycle                   49 ----------------------------------------------------

cycle         49
Decode : from Pc                  375 , expanded inst : 74670100000000000090, 
jne $'h0000000000000167
Exec : ppc                  384

Cycle                   50 ----------------------------------------------------

cycle         50
Stat update

Cycle                   51 ----------------------------------------------------

cycle         51
Fetch : from Pc                  359 , expanded inst : 50a70000000000000000, 
mrmovq 'h0000000000000000(%'h7), %'ha

Cycle                   52 ----------------------------------------------------

cycle         52
Decode : from Pc                  359 , expanded inst : 50a70000000000000000, 
mrmovq 'h0000000000000000(%'h7), %'ha
Exec : ppc                  369

Cycle                   53 ----------------------------------------------------

cycle         53
Loaded                    2 from                   48

Cycle                   54 ----------------------------------------------------

cycle         54
On 10, writes                    2	 (wrM)
Stat update

Cycle                   55 ----------------------------------------------------

cycle         55
Fetch : from Pc                  369 , expanded inst : 60a06087619674670100, 
addq %'ha, %'h0

Cycle                   56 ----------------------------------------------------

cycle         56
Decode : from Pc                  369 , expanded inst : 60a06087619674670100, 
addq %'ha, %'h0
Exec : ppc                  371

Cycle                   57 ----------------------------------------------------

cycle         57
On  0, writes                    3	 (wrE)
Stat update

Cycle                   58 ----------------------------------------------------

cycle         58
Fetch : from Pc                  371 , expanded inst : 60876196746701000000, 
addq %'h8, %'h7

Cycle                   59 ----------------------------------------------------

cycle         59
Decode : from Pc                  371 , expanded inst : 60876196746701000000, 
addq %'h8, %'h7
Exec : ppc                  373

Cycle                   60 ----------------------------------------------------

cycle         60
On  7, writes                   56	 (wrE)
Stat update

Cycle                   61 ----------------------------------------------------

cycle         61
Fetch : from Pc                  373 , expanded inst : 61967467010000000000, 
subq %'h9, %'h6

Cycle                   62 ----------------------------------------------------

cycle         62
Decode : from Pc                  373 , expanded inst : 61967467010000000000, 
subq %'h9, %'h6
Exec : ppc                  375

Cycle                   63 ----------------------------------------------------

cycle         63
On  6, writes                   30	 (wrE)
Stat update

Cycle                   64 ----------------------------------------------------

cycle         64
Fetch : from Pc                  375 , expanded inst : 74670100000000000090, 
jne $'h0000000000000167

Cycle                   65 ----------------------------------------------------

cycle         65
Decode : from Pc                  375 , expanded inst : 74670100000000000090, 
jne $'h0000000000000167
Exec : ppc                  384

Cycle                   66 ----------------------------------------------------

cycle         66
Stat update

Cycle                   67 ----------------------------------------------------

cycle         67
Fetch : from Pc                  359 , expanded inst : 50a70000000000000000, 
mrmovq 'h0000000000000000(%'h7), %'ha

Cycle                   68 ----------------------------------------------------

cycle         68
Decode : from Pc                  359 , expanded inst : 50a70000000000000000, 
mrmovq 'h0000000000000000(%'h7), %'ha
Exec : ppc                  369

Cycle                   69 ----------------------------------------------------

cycle         69
Loaded                    3 from                   56

Cycle                   70 ----------------------------------------------------

cycle         70
On 10, writes                    3	 (wrM)
Stat update

Cycle                   71 ----------------------------------------------------

cycle         71
Fetch : from Pc                  369 , expanded inst : 60a06087619674670100, 
addq %'ha, %'h0

Cycle                   72 ----------------------------------------------------

cycle         72
Decode : from Pc                  369 , expanded inst : 60a06087619674670100, 
addq %'ha, %'h0
Exec : ppc                  371

Cycle                   73 ----------------------------------------------------

cycle         73
On  0, writes                    6	 (wrE)
Stat update

Cycle                   74 ----------------------------------------------------

cycle         74
Fetch : from Pc                  371 , expanded inst : 60876196746701000000, 
addq %'h8, %'h7

Cycle                   75 ----------------------------------------------------

cycle         75
Decode : from Pc                  371 , expanded inst : 60876196746701000000, 
addq %'h8, %'h7
Exec : ppc                  373

Cycle                   76 ----------------------------------------------------

cycle         76
On  7, writes                   64	 (wrE)
Stat update

Cycle                   77 ----------------------------------------------------

cycle         77
Fetch : from Pc                  373 , expanded inst : 61967467010000000000, 
subq %'h9, %'h6

Cycle                   78 ----------------------------------------------------

cycle         78
Decode : from Pc                  373 , expanded inst : 61967467010000000000, 
subq %'h9, %'h6
Exec : ppc                  375

Cycle                   79 ----------------------------------------------------

cycle         79
On  6, writes                   29	 (wrE)
Stat update

Cycle                   80 ----------------------------------------------------

cycle         80
Fetch : from Pc                  375 , expanded inst : 74670100000000000090, 
jne $'h0000000000000167

Cycle                   81 ----------------------------------------------------

cycle         81
Decode : from Pc                  375 , expanded inst : 74670100000000000090, 
jne $'h0000000000000167
Exec : ppc                  384

Cycle                   82 ----------------------------------------------------

cycle         82
Stat update

Cycle                   83 ----------------------------------------------------

cycle         83
Fetch : from Pc                  359 , expanded inst : 50a70000000000000000, 
mrmovq 'h0000000000000000(%'h7), %'ha

Cycle                   84 ----------------------------------------------------

cycle         84
Decode : from Pc                  359 , expanded inst : 50a70000000000000000, 
mrmovq 'h0000000000000000(%'h7), %'ha
Exec : ppc                  369

Cycle                   85 ----------------------------------------------------

cycle         85
Loaded                    4 from                   64

Cycle                   86 ----------------------------------------------------

cycle         86
On 10, writes                    4	 (wrM)
Stat update

Cycle                   87 ----------------------------------------------------

cycle         87
Fetch : from Pc                  369 , expanded inst : 60a06087619674670100, 
addq %'ha, %'h0

Cycle                   88 ----------------------------------------------------

cycle         88
Decode : from Pc                  369 , expanded inst : 60a06087619674670100, 
addq %'ha, %'h0
Exec : ppc                  371

Cycle                   89 ----------------------------------------------------

cycle         89
On  0, writes                   10	 (wrE)
Stat update

Cycle                   90 ----------------------------------------------------

cycle         90
Fetch : from Pc                  371 , expanded inst : 60876196746701000000, 
addq %'h8, %'h7

Cycle                   91 ----------------------------------------------------

cycle         91
Decode : from Pc                  371 , expanded inst : 60876196746701000000, 
addq %'h8, %'h7
Exec : ppc                  373

Cycle                   92 ----------------------------------------------------

cycle         92
On  7, writes                   72	 (wrE)
Stat update

Cycle                   93 ----------------------------------------------------

cycle         93
Fetch : from Pc                  373 , expanded inst : 61967467010000000000, 
subq %'h9, %'h6

Cycle                   94 ----------------------------------------------------

cycle         94
Decode : from Pc                  373 , expanded inst : 61967467010000000000, 
subq %'h9, %'h6
Exec : ppc                  375

Cycle                   95 ----------------------------------------------------

cycle         95
On  6, writes                   28	 (wrE)
Stat update

Cycle                   96 ----------------------------------------------------

cycle         96
Fetch : from Pc                  375 , expanded inst : 74670100000000000090, 
jne $'h0000000000000167

Cycle                   97 ----------------------------------------------------

cycle         97
Decode : from Pc                  375 , expanded inst : 74670100000000000090, 
jne $'h0000000000000167
Exec : ppc                  384

Cycle                   98 ----------------------------------------------------

cycle         98
Stat update

Cycle                   99 ----------------------------------------------------

cycle         99
Fetch : from Pc                  359 , expanded inst : 50a70000000000000000, 
mrmovq 'h0000000000000000(%'h7), %'ha

Cycle                  100 ----------------------------------------------------

cycle        100
Decode : from Pc                  359 , expanded inst : 50a70000000000000000, 
mrmovq 'h0000000000000000(%'h7), %'ha
Exec : ppc                  369

Cycle                  101 ----------------------------------------------------

cycle        101
Loaded                    5 from                   72

Cycle                  102 ----------------------------------------------------

cycle        102
On 10, writes                    5	 (wrM)
Stat update

Cycle                  103 ----------------------------------------------------

cycle        103
Fetch : from Pc                  369 , expanded inst : 60a06087619674670100, 
addq %'ha, %'h0

Cycle                  104 ----------------------------------------------------

cycle        104
Decode : from Pc                  369 , expanded inst : 60a06087619674670100, 
addq %'ha, %'h0
Exec : ppc                  371

Cycle                  105 ----------------------------------------------------

cycle        105
On  0, writes                   15	 (wrE)
Stat update

Cycle                  106 ----------------------------------------------------

cycle        106
Fetch : from Pc                  371 , expanded inst : 60876196746701000000, 
addq %'h8, %'h7

Cycle                  107 ----------------------------------------------------

cycle        107
Decode : from Pc                  371 , expanded inst : 60876196746701000000, 
addq %'h8, %'h7
Exec : ppc                  373

Cycle                  108 ----------------------------------------------------

cycle        108
On  7, writes                   80	 (wrE)
Stat update

Cycle                  109 ----------------------------------------------------

cycle        109
Fetch : from Pc                  373 , expanded inst : 61967467010000000000, 
subq %'h9, %'h6

Cycle                  110 ----------------------------------------------------

cycle        110
Decode : from Pc                  373 , expanded inst : 61967467010000000000, 
subq %'h9, %'h6
Exec : ppc                  375

Cycle                  111 ----------------------------------------------------

cycle        111
On  6, writes                   27	 (wrE)
Stat update

Cycle                  112 ----------------------------------------------------

cycle        112
Fetch : from Pc                  375 , expanded inst : 74670100000000000090, 
jne $'h0000000000000167

Cycle                  113 ----------------------------------------------------

cycle        113
Decode : from Pc                  375 , expanded inst : 74670100000000000090, 
jne $'h0000000000000167
Exec : ppc                  384

Cycle                  114 ----------------------------------------------------

cycle        114
Stat update

Cycle                  115 ----------------------------------------------------

cycle        115
Fetch : from Pc                  359 , expanded inst : 50a70000000000000000, 
mrmovq 'h0000000000000000(%'h7), %'ha

Cycle                  116 ----------------------------------------------------

cycle        116
Decode : from Pc                  359 , expanded inst : 50a70000000000000000, 
mrmovq 'h0000000000000000(%'h7), %'ha
Exec : ppc                  369

Cycle                  117 ----------------------------------------------------

cycle        117
Loaded                    6 from                   80

Cycle                  118 ----------------------------------------------------

cycle        118
On 10, writes                    6	 (wrM)
Stat update

Cycle                  119 ----------------------------------------------------

cycle        119
Fetch : from Pc                  369 , expanded inst : 60a06087619674670100, 
addq %'ha, %'h0

Cycle                  120 ----------------------------------------------------

cycle        120
Decode : from Pc                  369 , expanded inst : 60a06087619674670100, 
addq %'ha, %'h0
Exec : ppc                  371

Cycle                  121 ----------------------------------------------------

cycle        121
On  0, writes                   21	 (wrE)
Stat update

Cycle                  122 ----------------------------------------------------

cycle        122
Fetch : from Pc                  371 , expanded inst : 60876196746701000000, 
addq %'h8, %'h7

Cycle                  123 ----------------------------------------------------

cycle        123
Decode : from Pc                  371 , expanded inst : 60876196746701000000, 
addq %'h8, %'h7
Exec : ppc                  373

Cycle                  124 ----------------------------------------------------

cycle        124
On  7, writes                   88	 (wrE)
Stat update

Cycle                  125 ----------------------------------------------------

cycle        125
Fetch : from Pc                  373 , expanded inst : 61967467010000000000, 
subq %'h9, %'h6

Cycle                  126 ----------------------------------------------------

cycle        126
Decode : from Pc                  373 , expanded inst : 61967467010000000000, 
subq %'h9, %'h6
Exec : ppc                  375

Cycle                  127 ----------------------------------------------------

cycle        127
On  6, writes                   26	 (wrE)
Stat update

Cycle                  128 ----------------------------------------------------

cycle        128
Fetch : from Pc                  375 , expanded inst : 74670100000000000090, 
jne $'h0000000000000167

Cycle                  129 ----------------------------------------------------

cycle        129
Decode : from Pc                  375 , expanded inst : 74670100000000000090, 
jne $'h0000000000000167
Exec : ppc                  384

Cycle                  130 ----------------------------------------------------

cycle        130
Stat update

Cycle                  131 ----------------------------------------------------

cycle        131
Fetch : from Pc                  359 , expanded inst : 50a70000000000000000, 
mrmovq 'h0000000000000000(%'h7), %'ha

Cycle                  132 ----------------------------------------------------

cycle        132
Decode : from Pc                  359 , expanded inst : 50a70000000000000000, 
mrmovq 'h0000000000000000(%'h7), %'ha
Exec : ppc                  369

Cycle                  133 ----------------------------------------------------

cycle        133
Loaded                    7 from                   88

Cycle                  134 ----------------------------------------------------

cycle        134
On 10, writes                    7	 (wrM)
Stat update

Cycle                  135 ----------------------------------------------------

cycle        135
Fetch : from Pc                  369 , expanded inst : 60a06087619674670100, 
addq %'ha, %'h0

Cycle                  136 ----------------------------------------------------

cycle        136
Decode : from Pc                  369 , expanded inst : 60a06087619674670100, 
addq %'ha, %'h0
Exec : ppc                  371

Cycle                  137 ----------------------------------------------------

cycle        137
On  0, writes                   28	 (wrE)
Stat update

Cycle                  138 ----------------------------------------------------

cycle        138
Fetch : from Pc                  371 , expanded inst : 60876196746701000000, 
addq %'h8, %'h7

Cycle                  139 ----------------------------------------------------

cycle        139
Decode : from Pc                  371 , expanded inst : 60876196746701000000, 
addq %'h8, %'h7
Exec : ppc                  373

Cycle                  140 ----------------------------------------------------

cycle        140
On  7, writes                   96	 (wrE)
Stat update

Cycle                  141 ----------------------------------------------------

cycle        141
Fetch : from Pc                  373 , expanded inst : 61967467010000000000, 
subq %'h9, %'h6

Cycle                  142 ----------------------------------------------------

cycle        142
Decode : from Pc                  373 , expanded inst : 61967467010000000000, 
subq %'h9, %'h6
Exec : ppc                  375

Cycle                  143 ----------------------------------------------------

cycle        143
On  6, writes                   25	 (wrE)
Stat update

Cycle                  144 ----------------------------------------------------

cycle        144
Fetch : from Pc                  375 , expanded inst : 74670100000000000090, 
jne $'h0000000000000167

Cycle                  145 ----------------------------------------------------

cycle        145
Decode : from Pc                  375 , expanded inst : 74670100000000000090, 
jne $'h0000000000000167
Exec : ppc                  384

Cycle                  146 ----------------------------------------------------

cycle        146
Stat update

Cycle                  147 ----------------------------------------------------

cycle        147
Fetch : from Pc                  359 , expanded inst : 50a70000000000000000, 
mrmovq 'h0000000000000000(%'h7), %'ha

Cycle                  148 ----------------------------------------------------

cycle        148
Decode : from Pc                  359 , expanded inst : 50a70000000000000000, 
mrmovq 'h0000000000000000(%'h7), %'ha
Exec : ppc                  369

Cycle                  149 ----------------------------------------------------

cycle        149
Loaded                    8 from                   96

Cycle                  150 ----------------------------------------------------

cycle        150
On 10, writes                    8	 (wrM)
Stat update

Cycle                  151 ----------------------------------------------------

cycle        151
Fetch : from Pc                  369 , expanded inst : 60a06087619674670100, 
addq %'ha, %'h0

Cycle                  152 ----------------------------------------------------

cycle        152
Decode : from Pc                  369 , expanded inst : 60a06087619674670100, 
addq %'ha, %'h0
Exec : ppc                  371

Cycle                  153 ----------------------------------------------------

cycle        153
On  0, writes                   36	 (wrE)
Stat update

Cycle                  154 ----------------------------------------------------

cycle        154
Fetch : from Pc                  371 , expanded inst : 60876196746701000000, 
addq %'h8, %'h7

Cycle                  155 ----------------------------------------------------

cycle        155
Decode : from Pc                  371 , expanded inst : 60876196746701000000, 
addq %'h8, %'h7
Exec : ppc                  373

Cycle                  156 ----------------------------------------------------

cycle        156
On  7, writes                  104	 (wrE)
Stat update

Cycle                  157 ----------------------------------------------------

cycle        157
Fetch : from Pc                  373 , expanded inst : 61967467010000000000, 
subq %'h9, %'h6

Cycle                  158 ----------------------------------------------------

cycle        158
Decode : from Pc                  373 , expanded inst : 61967467010000000000, 
subq %'h9, %'h6
Exec : ppc                  375

Cycle                  159 ----------------------------------------------------

cycle        159
On  6, writes                   24	 (wrE)
Stat update

Cycle                  160 ----------------------------------------------------

cycle        160
Fetch : from Pc                  375 , expanded inst : 74670100000000000090, 
jne $'h0000000000000167

Cycle                  161 ----------------------------------------------------

cycle        161
Decode : from Pc                  375 , expanded inst : 74670100000000000090, 
jne $'h0000000000000167
Exec : ppc                  384

Cycle                  162 ----------------------------------------------------

cycle        162
Stat update

Cycle                  163 ----------------------------------------------------

cycle        163
Fetch : from Pc                  359 , expanded inst : 50a70000000000000000, 
mrmovq 'h0000000000000000(%'h7), %'ha

Cycle                  164 ----------------------------------------------------

cycle        164
Decode : from Pc                  359 , expanded inst : 50a70000000000000000, 
mrmovq 'h0000000000000000(%'h7), %'ha
Exec : ppc                  369

Cycle                  165 ----------------------------------------------------

cycle        165
Loaded                    9 from                  104

Cycle                  166 ----------------------------------------------------

cycle        166
On 10, writes                    9	 (wrM)
Stat update

Cycle                  167 ----------------------------------------------------

cycle        167
Fetch : from Pc                  369 , expanded inst : 60a06087619674670100, 
addq %'ha, %'h0

Cycle                  168 ----------------------------------------------------

cycle        168
Decode : from Pc                  369 , expanded inst : 60a06087619674670100, 
addq %'ha, %'h0
Exec : ppc                  371

Cycle                  169 ----------------------------------------------------

cycle        169
On  0, writes                   45	 (wrE)
Stat update

Cycle                  170 ----------------------------------------------------

cycle        170
Fetch : from Pc                  371 , expanded inst : 60876196746701000000, 
addq %'h8, %'h7

Cycle                  171 ----------------------------------------------------

cycle        171
Decode : from Pc                  371 , expanded inst : 60876196746701000000, 
addq %'h8, %'h7
Exec : ppc                  373

Cycle                  172 ----------------------------------------------------

cycle        172
On  7, writes                  112	 (wrE)
Stat update

Cycle                  173 ----------------------------------------------------

cycle        173
Fetch : from Pc                  373 , expanded inst : 61967467010000000000, 
subq %'h9, %'h6

Cycle                  174 ----------------------------------------------------

cycle        174
Decode : from Pc                  373 , expanded inst : 61967467010000000000, 
subq %'h9, %'h6
Exec : ppc                  375

Cycle                  175 ----------------------------------------------------

cycle        175
On  6, writes                   23	 (wrE)
Stat update

Cycle                  176 ----------------------------------------------------

cycle        176
Fetch : from Pc                  375 , expanded inst : 74670100000000000090, 
jne $'h0000000000000167

Cycle                  177 ----------------------------------------------------

cycle        177
Decode : from Pc                  375 , expanded inst : 74670100000000000090, 
jne $'h0000000000000167
Exec : ppc                  384

Cycle                  178 ----------------------------------------------------

cycle        178
Stat update

Cycle                  179 ----------------------------------------------------

cycle        179
Fetch : from Pc                  359 , expanded inst : 50a70000000000000000, 
mrmovq 'h0000000000000000(%'h7), %'ha

Cycle                  180 ----------------------------------------------------

cycle        180
Decode : from Pc                  359 , expanded inst : 50a70000000000000000, 
mrmovq 'h0000000000000000(%'h7), %'ha
Exec : ppc                  369

Cycle                  181 ----------------------------------------------------

cycle        181
Loaded                   10 from                  112

Cycle                  182 ----------------------------------------------------

cycle        182
On 10, writes                   10	 (wrM)
Stat update

Cycle                  183 ----------------------------------------------------

cycle        183
Fetch : from Pc                  369 , expanded inst : 60a06087619674670100, 
addq %'ha, %'h0

Cycle                  184 ----------------------------------------------------

cycle        184
Decode : from Pc                  369 , expanded inst : 60a06087619674670100, 
addq %'ha, %'h0
Exec : ppc                  371

Cycle                  185 ----------------------------------------------------

cycle        185
On  0, writes                   55	 (wrE)
Stat update

Cycle                  186 ----------------------------------------------------

cycle        186
Fetch : from Pc                  371 , expanded inst : 60876196746701000000, 
addq %'h8, %'h7

Cycle                  187 ----------------------------------------------------

cycle        187
Decode : from Pc                  371 , expanded inst : 60876196746701000000, 
addq %'h8, %'h7
Exec : ppc                  373

Cycle                  188 ----------------------------------------------------

cycle        188
On  7, writes                  120	 (wrE)
Stat update

Cycle                  189 ----------------------------------------------------

cycle        189
Fetch : from Pc                  373 , expanded inst : 61967467010000000000, 
subq %'h9, %'h6

Cycle                  190 ----------------------------------------------------

cycle        190
Decode : from Pc                  373 , expanded inst : 61967467010000000000, 
subq %'h9, %'h6
Exec : ppc                  375

Cycle                  191 ----------------------------------------------------

cycle        191
On  6, writes                   22	 (wrE)
Stat update

Cycle                  192 ----------------------------------------------------

cycle        192
Fetch : from Pc                  375 , expanded inst : 74670100000000000090, 
jne $'h0000000000000167

Cycle                  193 ----------------------------------------------------

cycle        193
Decode : from Pc                  375 , expanded inst : 74670100000000000090, 
jne $'h0000000000000167
Exec : ppc                  384

Cycle                  194 ----------------------------------------------------

cycle        194
Stat update

Cycle                  195 ----------------------------------------------------

cycle        195
Fetch : from Pc                  359 , expanded inst : 50a70000000000000000, 
mrmovq 'h0000000000000000(%'h7), %'ha

Cycle                  196 ----------------------------------------------------

cycle        196
Decode : from Pc                  359 , expanded inst : 50a70000000000000000, 
mrmovq 'h0000000000000000(%'h7), %'ha
Exec : ppc                  369

Cycle                  197 ----------------------------------------------------

cycle        197
Loaded                   11 from                  120

Cycle                  198 ----------------------------------------------------

cycle        198
On 10, writes                   11	 (wrM)
Stat update

Cycle                  199 ----------------------------------------------------

cycle        199
Fetch : from Pc                  369 , expanded inst : 60a06087619674670100, 
addq %'ha, %'h0

Cycle                  200 ----------------------------------------------------

cycle        200
Decode : from Pc                  369 , expanded inst : 60a06087619674670100, 
addq %'ha, %'h0
Exec : ppc                  371

Cycle                  201 ----------------------------------------------------

cycle        201
On  0, writes                   66	 (wrE)
Stat update

Cycle                  202 ----------------------------------------------------

cycle        202
Fetch : from Pc                  371 , expanded inst : 60876196746701000000, 
addq %'h8, %'h7

Cycle                  203 ----------------------------------------------------

cycle        203
Decode : from Pc                  371 , expanded inst : 60876196746701000000, 
addq %'h8, %'h7
Exec : ppc                  373

Cycle                  204 ----------------------------------------------------

cycle        204
On  7, writes                  128	 (wrE)
Stat update

Cycle                  205 ----------------------------------------------------

cycle        205
Fetch : from Pc                  373 , expanded inst : 61967467010000000000, 
subq %'h9, %'h6

Cycle                  206 ----------------------------------------------------

cycle        206
Decode : from Pc                  373 , expanded inst : 61967467010000000000, 
subq %'h9, %'h6
Exec : ppc                  375

Cycle                  207 ----------------------------------------------------

cycle        207
On  6, writes                   21	 (wrE)
Stat update

Cycle                  208 ----------------------------------------------------

cycle        208
Fetch : from Pc                  375 , expanded inst : 74670100000000000090, 
jne $'h0000000000000167

Cycle                  209 ----------------------------------------------------

cycle        209
Decode : from Pc                  375 , expanded inst : 74670100000000000090, 
jne $'h0000000000000167
Exec : ppc                  384

Cycle                  210 ----------------------------------------------------

cycle        210
Stat update

Cycle                  211 ----------------------------------------------------

cycle        211
Fetch : from Pc                  359 , expanded inst : 50a70000000000000000, 
mrmovq 'h0000000000000000(%'h7), %'ha

Cycle                  212 ----------------------------------------------------

cycle        212
Decode : from Pc                  359 , expanded inst : 50a70000000000000000, 
mrmovq 'h0000000000000000(%'h7), %'ha
Exec : ppc                  369

Cycle                  213 ----------------------------------------------------

cycle        213
Loaded                   12 from                  128

Cycle                  214 ----------------------------------------------------

cycle        214
On 10, writes                   12	 (wrM)
Stat update

Cycle                  215 ----------------------------------------------------

cycle        215
Fetch : from Pc                  369 , expanded inst : 60a06087619674670100, 
addq %'ha, %'h0

Cycle                  216 ----------------------------------------------------

cycle        216
Decode : from Pc                  369 , expanded inst : 60a06087619674670100, 
addq %'ha, %'h0
Exec : ppc                  371

Cycle                  217 ----------------------------------------------------

cycle        217
On  0, writes                   78	 (wrE)
Stat update

Cycle                  218 ----------------------------------------------------

cycle        218
Fetch : from Pc                  371 , expanded inst : 60876196746701000000, 
addq %'h8, %'h7

Cycle                  219 ----------------------------------------------------

cycle        219
Decode : from Pc                  371 , expanded inst : 60876196746701000000, 
addq %'h8, %'h7
Exec : ppc                  373

Cycle                  220 ----------------------------------------------------

cycle        220
On  7, writes                  136	 (wrE)
Stat update

Cycle                  221 ----------------------------------------------------

cycle        221
Fetch : from Pc                  373 , expanded inst : 61967467010000000000, 
subq %'h9, %'h6

Cycle                  222 ----------------------------------------------------

cycle        222
Decode : from Pc                  373 , expanded inst : 61967467010000000000, 
subq %'h9, %'h6
Exec : ppc                  375

Cycle                  223 ----------------------------------------------------

cycle        223
On  6, writes                   20	 (wrE)
Stat update

Cycle                  224 ----------------------------------------------------

cycle        224
Fetch : from Pc                  375 , expanded inst : 74670100000000000090, 
jne $'h0000000000000167

Cycle                  225 ----------------------------------------------------

cycle        225
Decode : from Pc                  375 , expanded inst : 74670100000000000090, 
jne $'h0000000000000167
Exec : ppc                  384

Cycle                  226 ----------------------------------------------------

cycle        226
Stat update

Cycle                  227 ----------------------------------------------------

cycle        227
Fetch : from Pc                  359 , expanded inst : 50a70000000000000000, 
mrmovq 'h0000000000000000(%'h7), %'ha

Cycle                  228 ----------------------------------------------------

cycle        228
Decode : from Pc                  359 , expanded inst : 50a70000000000000000, 
mrmovq 'h0000000000000000(%'h7), %'ha
Exec : ppc                  369

Cycle                  229 ----------------------------------------------------

cycle        229
Loaded                   13 from                  136

Cycle                  230 ----------------------------------------------------

cycle        230
On 10, writes                   13	 (wrM)
Stat update

Cycle                  231 ----------------------------------------------------

cycle        231
Fetch : from Pc                  369 , expanded inst : 60a06087619674670100, 
addq %'ha, %'h0

Cycle                  232 ----------------------------------------------------

cycle        232
Decode : from Pc                  369 , expanded inst : 60a06087619674670100, 
addq %'ha, %'h0
Exec : ppc                  371

Cycle                  233 ----------------------------------------------------

cycle        233
On  0, writes                   91	 (wrE)
Stat update

Cycle                  234 ----------------------------------------------------

cycle        234
Fetch : from Pc                  371 , expanded inst : 60876196746701000000, 
addq %'h8, %'h7

Cycle                  235 ----------------------------------------------------

cycle        235
Decode : from Pc                  371 , expanded inst : 60876196746701000000, 
addq %'h8, %'h7
Exec : ppc                  373

Cycle                  236 ----------------------------------------------------

cycle        236
On  7, writes                  144	 (wrE)
Stat update

Cycle                  237 ----------------------------------------------------

cycle        237
Fetch : from Pc                  373 , expanded inst : 61967467010000000000, 
subq %'h9, %'h6

Cycle                  238 ----------------------------------------------------

cycle        238
Decode : from Pc                  373 , expanded inst : 61967467010000000000, 
subq %'h9, %'h6
Exec : ppc                  375

Cycle                  239 ----------------------------------------------------

cycle        239
On  6, writes                   19	 (wrE)
Stat update

Cycle                  240 ----------------------------------------------------

cycle        240
Fetch : from Pc                  375 , expanded inst : 74670100000000000090, 
jne $'h0000000000000167

Cycle                  241 ----------------------------------------------------

cycle        241
Decode : from Pc                  375 , expanded inst : 74670100000000000090, 
jne $'h0000000000000167
Exec : ppc                  384

Cycle                  242 ----------------------------------------------------

cycle        242
Stat update

Cycle                  243 ----------------------------------------------------

cycle        243
Fetch : from Pc                  359 , expanded inst : 50a70000000000000000, 
mrmovq 'h0000000000000000(%'h7), %'ha

Cycle                  244 ----------------------------------------------------

cycle        244
Decode : from Pc                  359 , expanded inst : 50a70000000000000000, 
mrmovq 'h0000000000000000(%'h7), %'ha
Exec : ppc                  369

Cycle                  245 ----------------------------------------------------

cycle        245
Loaded                   14 from                  144

Cycle                  246 ----------------------------------------------------

cycle        246
On 10, writes                   14	 (wrM)
Stat update

Cycle                  247 ----------------------------------------------------

cycle        247
Fetch : from Pc                  369 , expanded inst : 60a06087619674670100, 
addq %'ha, %'h0

Cycle                  248 ----------------------------------------------------

cycle        248
Decode : from Pc                  369 , expanded inst : 60a06087619674670100, 
addq %'ha, %'h0
Exec : ppc                  371

Cycle                  249 ----------------------------------------------------

cycle        249
On  0, writes                  105	 (wrE)
Stat update

Cycle                  250 ----------------------------------------------------

cycle        250
Fetch : from Pc                  371 , expanded inst : 60876196746701000000, 
addq %'h8, %'h7

Cycle                  251 ----------------------------------------------------

cycle        251
Decode : from Pc                  371 , expanded inst : 60876196746701000000, 
addq %'h8, %'h7
Exec : ppc                  373

Cycle                  252 ----------------------------------------------------

cycle        252
On  7, writes                  152	 (wrE)
Stat update

Cycle                  253 ----------------------------------------------------

cycle        253
Fetch : from Pc                  373 , expanded inst : 61967467010000000000, 
subq %'h9, %'h6

Cycle                  254 ----------------------------------------------------

cycle        254
Decode : from Pc                  373 , expanded inst : 61967467010000000000, 
subq %'h9, %'h6
Exec : ppc                  375

Cycle                  255 ----------------------------------------------------

cycle        255
On  6, writes                   18	 (wrE)
Stat update

Cycle                  256 ----------------------------------------------------

cycle        256
Fetch : from Pc                  375 , expanded inst : 74670100000000000090, 
jne $'h0000000000000167

Cycle                  257 ----------------------------------------------------

cycle        257
Decode : from Pc                  375 , expanded inst : 74670100000000000090, 
jne $'h0000000000000167
Exec : ppc                  384

Cycle                  258 ----------------------------------------------------

cycle        258
Stat update

Cycle                  259 ----------------------------------------------------

cycle        259
Fetch : from Pc                  359 , expanded inst : 50a70000000000000000, 
mrmovq 'h0000000000000000(%'h7), %'ha

Cycle                  260 ----------------------------------------------------

cycle        260
Decode : from Pc                  359 , expanded inst : 50a70000000000000000, 
mrmovq 'h0000000000000000(%'h7), %'ha
Exec : ppc                  369

Cycle                  261 ----------------------------------------------------

cycle        261
Loaded                   15 from                  152

Cycle                  262 ----------------------------------------------------

cycle        262
On 10, writes                   15	 (wrM)
Stat update

Cycle                  263 ----------------------------------------------------

cycle        263
Fetch : from Pc                  369 , expanded inst : 60a06087619674670100, 
addq %'ha, %'h0

Cycle                  264 ----------------------------------------------------

cycle        264
Decode : from Pc                  369 , expanded inst : 60a06087619674670100, 
addq %'ha, %'h0
Exec : ppc                  371

Cycle                  265 ----------------------------------------------------

cycle        265
On  0, writes                  120	 (wrE)
Stat update

Cycle                  266 ----------------------------------------------------

cycle        266
Fetch : from Pc                  371 , expanded inst : 60876196746701000000, 
addq %'h8, %'h7

Cycle                  267 ----------------------------------------------------

cycle        267
Decode : from Pc                  371 , expanded inst : 60876196746701000000, 
addq %'h8, %'h7
Exec : ppc                  373

Cycle                  268 ----------------------------------------------------

cycle        268
On  7, writes                  160	 (wrE)
Stat update

Cycle                  269 ----------------------------------------------------

cycle        269
Fetch : from Pc                  373 , expanded inst : 61967467010000000000, 
subq %'h9, %'h6

Cycle                  270 ----------------------------------------------------

cycle        270
Decode : from Pc                  373 , expanded inst : 61967467010000000000, 
subq %'h9, %'h6
Exec : ppc                  375

Cycle                  271 ----------------------------------------------------

cycle        271
On  6, writes                   17	 (wrE)
Stat update

Cycle                  272 ----------------------------------------------------

cycle        272
Fetch : from Pc                  375 , expanded inst : 74670100000000000090, 
jne $'h0000000000000167

Cycle                  273 ----------------------------------------------------

cycle        273
Decode : from Pc                  375 , expanded inst : 74670100000000000090, 
jne $'h0000000000000167
Exec : ppc                  384

Cycle                  274 ----------------------------------------------------

cycle        274
Stat update

Cycle                  275 ----------------------------------------------------

cycle        275
Fetch : from Pc                  359 , expanded inst : 50a70000000000000000, 
mrmovq 'h0000000000000000(%'h7), %'ha

Cycle                  276 ----------------------------------------------------

cycle        276
Decode : from Pc                  359 , expanded inst : 50a70000000000000000, 
mrmovq 'h0000000000000000(%'h7), %'ha
Exec : ppc                  369

Cycle                  277 ----------------------------------------------------

cycle        277
Loaded                   16 from                  160

Cycle                  278 ----------------------------------------------------

cycle        278
On 10, writes                   16	 (wrM)
Stat update

Cycle                  279 ----------------------------------------------------

cycle        279
Fetch : from Pc                  369 , expanded inst : 60a06087619674670100, 
addq %'ha, %'h0

Cycle                  280 ----------------------------------------------------

cycle        280
Decode : from Pc                  369 , expanded inst : 60a06087619674670100, 
addq %'ha, %'h0
Exec : ppc                  371

Cycle                  281 ----------------------------------------------------

cycle        281
On  0, writes                  136	 (wrE)
Stat update

Cycle                  282 ----------------------------------------------------

cycle        282
Fetch : from Pc                  371 , expanded inst : 60876196746701000000, 
addq %'h8, %'h7

Cycle                  283 ----------------------------------------------------

cycle        283
Decode : from Pc                  371 , expanded inst : 60876196746701000000, 
addq %'h8, %'h7
Exec : ppc                  373

Cycle                  284 ----------------------------------------------------

cycle        284
On  7, writes                  168	 (wrE)
Stat update

Cycle                  285 ----------------------------------------------------

cycle        285
Fetch : from Pc                  373 , expanded inst : 61967467010000000000, 
subq %'h9, %'h6

Cycle                  286 ----------------------------------------------------

cycle        286
Decode : from Pc                  373 , expanded inst : 61967467010000000000, 
subq %'h9, %'h6
Exec : ppc                  375

Cycle                  287 ----------------------------------------------------

cycle        287
On  6, writes                   16	 (wrE)
Stat update

Cycle                  288 ----------------------------------------------------

cycle        288
Fetch : from Pc                  375 , expanded inst : 74670100000000000090, 
jne $'h0000000000000167

Cycle                  289 ----------------------------------------------------

cycle        289
Decode : from Pc                  375 , expanded inst : 74670100000000000090, 
jne $'h0000000000000167
Exec : ppc                  384

Cycle                  290 ----------------------------------------------------

cycle        290
Stat update

Cycle                  291 ----------------------------------------------------

cycle        291
Fetch : from Pc                  359 , expanded inst : 50a70000000000000000, 
mrmovq 'h0000000000000000(%'h7), %'ha

Cycle                  292 ----------------------------------------------------

cycle        292
Decode : from Pc                  359 , expanded inst : 50a70000000000000000, 
mrmovq 'h0000000000000000(%'h7), %'ha
Exec : ppc                  369

Cycle                  293 ----------------------------------------------------

cycle        293
Loaded                   17 from                  168

Cycle                  294 ----------------------------------------------------

cycle        294
On 10, writes                   17	 (wrM)
Stat update

Cycle                  295 ----------------------------------------------------

cycle        295
Fetch : from Pc                  369 , expanded inst : 60a06087619674670100, 
addq %'ha, %'h0

Cycle                  296 ----------------------------------------------------

cycle        296
Decode : from Pc                  369 , expanded inst : 60a06087619674670100, 
addq %'ha, %'h0
Exec : ppc                  371

Cycle                  297 ----------------------------------------------------

cycle        297
On  0, writes                  153	 (wrE)
Stat update

Cycle                  298 ----------------------------------------------------

cycle        298
Fetch : from Pc                  371 , expanded inst : 60876196746701000000, 
addq %'h8, %'h7

Cycle                  299 ----------------------------------------------------

cycle        299
Decode : from Pc                  371 , expanded inst : 60876196746701000000, 
addq %'h8, %'h7
Exec : ppc                  373

Cycle                  300 ----------------------------------------------------

cycle        300
On  7, writes                  176	 (wrE)
Stat update

Cycle                  301 ----------------------------------------------------

cycle        301
Fetch : from Pc                  373 , expanded inst : 61967467010000000000, 
subq %'h9, %'h6

Cycle                  302 ----------------------------------------------------

cycle        302
Decode : from Pc                  373 , expanded inst : 61967467010000000000, 
subq %'h9, %'h6
Exec : ppc                  375

Cycle                  303 ----------------------------------------------------

cycle        303
On  6, writes                   15	 (wrE)
Stat update

Cycle                  304 ----------------------------------------------------

cycle        304
Fetch : from Pc                  375 , expanded inst : 74670100000000000090, 
jne $'h0000000000000167

Cycle                  305 ----------------------------------------------------

cycle        305
Decode : from Pc                  375 , expanded inst : 74670100000000000090, 
jne $'h0000000000000167
Exec : ppc                  384

Cycle                  306 ----------------------------------------------------

cycle        306
Stat update

Cycle                  307 ----------------------------------------------------

cycle        307
Fetch : from Pc                  359 , expanded inst : 50a70000000000000000, 
mrmovq 'h0000000000000000(%'h7), %'ha

Cycle                  308 ----------------------------------------------------

cycle        308
Decode : from Pc                  359 , expanded inst : 50a70000000000000000, 
mrmovq 'h0000000000000000(%'h7), %'ha
Exec : ppc                  369

Cycle                  309 ----------------------------------------------------

cycle        309
Loaded                   18 from                  176

Cycle                  310 ----------------------------------------------------

cycle        310
On 10, writes                   18	 (wrM)
Stat update

Cycle                  311 ----------------------------------------------------

cycle        311
Fetch : from Pc                  369 , expanded inst : 60a06087619674670100, 
addq %'ha, %'h0

Cycle                  312 ----------------------------------------------------

cycle        312
Decode : from Pc                  369 , expanded inst : 60a06087619674670100, 
addq %'ha, %'h0
Exec : ppc                  371

Cycle                  313 ----------------------------------------------------

cycle        313
On  0, writes                  171	 (wrE)
Stat update

Cycle                  314 ----------------------------------------------------

cycle        314
Fetch : from Pc                  371 , expanded inst : 60876196746701000000, 
addq %'h8, %'h7

Cycle                  315 ----------------------------------------------------

cycle        315
Decode : from Pc                  371 , expanded inst : 60876196746701000000, 
addq %'h8, %'h7
Exec : ppc                  373

Cycle                  316 ----------------------------------------------------

cycle        316
On  7, writes                  184	 (wrE)
Stat update

Cycle                  317 ----------------------------------------------------

cycle        317
Fetch : from Pc                  373 , expanded inst : 61967467010000000000, 
subq %'h9, %'h6

Cycle                  318 ----------------------------------------------------

cycle        318
Decode : from Pc                  373 , expanded inst : 61967467010000000000, 
subq %'h9, %'h6
Exec : ppc                  375

Cycle                  319 ----------------------------------------------------

cycle        319
On  6, writes                   14	 (wrE)
Stat update

Cycle                  320 ----------------------------------------------------

cycle        320
Fetch : from Pc                  375 , expanded inst : 74670100000000000090, 
jne $'h0000000000000167

Cycle                  321 ----------------------------------------------------

cycle        321
Decode : from Pc                  375 , expanded inst : 74670100000000000090, 
jne $'h0000000000000167
Exec : ppc                  384

Cycle                  322 ----------------------------------------------------

cycle        322
Stat update

Cycle                  323 ----------------------------------------------------

cycle        323
Fetch : from Pc                  359 , expanded inst : 50a70000000000000000, 
mrmovq 'h0000000000000000(%'h7), %'ha

Cycle                  324 ----------------------------------------------------

cycle        324
Decode : from Pc                  359 , expanded inst : 50a70000000000000000, 
mrmovq 'h0000000000000000(%'h7), %'ha
Exec : ppc                  369

Cycle                  325 ----------------------------------------------------

cycle        325
Loaded                   19 from                  184

Cycle                  326 ----------------------------------------------------

cycle        326
On 10, writes                   19	 (wrM)
Stat update

Cycle                  327 ----------------------------------------------------

cycle        327
Fetch : from Pc                  369 , expanded inst : 60a06087619674670100, 
addq %'ha, %'h0

Cycle                  328 ----------------------------------------------------

cycle        328
Decode : from Pc                  369 , expanded inst : 60a06087619674670100, 
addq %'ha, %'h0
Exec : ppc                  371

Cycle                  329 ----------------------------------------------------

cycle        329
On  0, writes                  190	 (wrE)
Stat update

Cycle                  330 ----------------------------------------------------

cycle        330
Fetch : from Pc                  371 , expanded inst : 60876196746701000000, 
addq %'h8, %'h7

Cycle                  331 ----------------------------------------------------

cycle        331
Decode : from Pc                  371 , expanded inst : 60876196746701000000, 
addq %'h8, %'h7
Exec : ppc                  373

Cycle                  332 ----------------------------------------------------

cycle        332
On  7, writes                  192	 (wrE)
Stat update

Cycle                  333 ----------------------------------------------------

cycle        333
Fetch : from Pc                  373 , expanded inst : 61967467010000000000, 
subq %'h9, %'h6

Cycle                  334 ----------------------------------------------------

cycle        334
Decode : from Pc                  373 , expanded inst : 61967467010000000000, 
subq %'h9, %'h6
Exec : ppc                  375

Cycle                  335 ----------------------------------------------------

cycle        335
On  6, writes                   13	 (wrE)
Stat update

Cycle                  336 ----------------------------------------------------

cycle        336
Fetch : from Pc                  375 , expanded inst : 74670100000000000090, 
jne $'h0000000000000167

Cycle                  337 ----------------------------------------------------

cycle        337
Decode : from Pc                  375 , expanded inst : 74670100000000000090, 
jne $'h0000000000000167
Exec : ppc                  384

Cycle                  338 ----------------------------------------------------

cycle        338
Stat update

Cycle                  339 ----------------------------------------------------

cycle        339
Fetch : from Pc                  359 , expanded inst : 50a70000000000000000, 
mrmovq 'h0000000000000000(%'h7), %'ha

Cycle                  340 ----------------------------------------------------

cycle        340
Decode : from Pc                  359 , expanded inst : 50a70000000000000000, 
mrmovq 'h0000000000000000(%'h7), %'ha
Exec : ppc                  369

Cycle                  341 ----------------------------------------------------

cycle        341
Loaded                   20 from                  192

Cycle                  342 ----------------------------------------------------

cycle        342
On 10, writes                   20	 (wrM)
Stat update

Cycle                  343 ----------------------------------------------------

cycle        343
Fetch : from Pc                  369 , expanded inst : 60a06087619674670100, 
addq %'ha, %'h0

Cycle                  344 ----------------------------------------------------

cycle        344
Decode : from Pc                  369 , expanded inst : 60a06087619674670100, 
addq %'ha, %'h0
Exec : ppc                  371

Cycle                  345 ----------------------------------------------------

cycle        345
On  0, writes                  210	 (wrE)
Stat update

Cycle                  346 ----------------------------------------------------

cycle        346
Fetch : from Pc                  371 , expanded inst : 60876196746701000000, 
addq %'h8, %'h7

Cycle                  347 ----------------------------------------------------

cycle        347
Decode : from Pc                  371 , expanded inst : 60876196746701000000, 
addq %'h8, %'h7
Exec : ppc                  373

Cycle                  348 ----------------------------------------------------

cycle        348
On  7, writes                  200	 (wrE)
Stat update

Cycle                  349 ----------------------------------------------------

cycle        349
Fetch : from Pc                  373 , expanded inst : 61967467010000000000, 
subq %'h9, %'h6

Cycle                  350 ----------------------------------------------------

cycle        350
Decode : from Pc                  373 , expanded inst : 61967467010000000000, 
subq %'h9, %'h6
Exec : ppc                  375

Cycle                  351 ----------------------------------------------------

cycle        351
On  6, writes                   12	 (wrE)
Stat update

Cycle                  352 ----------------------------------------------------

cycle        352
Fetch : from Pc                  375 , expanded inst : 74670100000000000090, 
jne $'h0000000000000167

Cycle                  353 ----------------------------------------------------

cycle        353
Decode : from Pc                  375 , expanded inst : 74670100000000000090, 
jne $'h0000000000000167
Exec : ppc                  384

Cycle                  354 ----------------------------------------------------

cycle        354
Stat update

Cycle                  355 ----------------------------------------------------

cycle        355
Fetch : from Pc                  359 , expanded inst : 50a70000000000000000, 
mrmovq 'h0000000000000000(%'h7), %'ha

Cycle                  356 ----------------------------------------------------

cycle        356
Decode : from Pc                  359 , expanded inst : 50a70000000000000000, 
mrmovq 'h0000000000000000(%'h7), %'ha
Exec : ppc                  369

Cycle                  357 ----------------------------------------------------

cycle        357
Loaded                   21 from                  200

Cycle                  358 ----------------------------------------------------

cycle        358
On 10, writes                   21	 (wrM)
Stat update

Cycle                  359 ----------------------------------------------------

cycle        359
Fetch : from Pc                  369 , expanded inst : 60a06087619674670100, 
addq %'ha, %'h0

Cycle                  360 ----------------------------------------------------

cycle        360
Decode : from Pc                  369 , expanded inst : 60a06087619674670100, 
addq %'ha, %'h0
Exec : ppc                  371

Cycle                  361 ----------------------------------------------------

cycle        361
On  0, writes                  231	 (wrE)
Stat update

Cycle                  362 ----------------------------------------------------

cycle        362
Fetch : from Pc                  371 , expanded inst : 60876196746701000000, 
addq %'h8, %'h7

Cycle                  363 ----------------------------------------------------

cycle        363
Decode : from Pc                  371 , expanded inst : 60876196746701000000, 
addq %'h8, %'h7
Exec : ppc                  373

Cycle                  364 ----------------------------------------------------

cycle        364
On  7, writes                  208	 (wrE)
Stat update

Cycle                  365 ----------------------------------------------------

cycle        365
Fetch : from Pc                  373 , expanded inst : 61967467010000000000, 
subq %'h9, %'h6

Cycle                  366 ----------------------------------------------------

cycle        366
Decode : from Pc                  373 , expanded inst : 61967467010000000000, 
subq %'h9, %'h6
Exec : ppc                  375

Cycle                  367 ----------------------------------------------------

cycle        367
On  6, writes                   11	 (wrE)
Stat update

Cycle                  368 ----------------------------------------------------

cycle        368
Fetch : from Pc                  375 , expanded inst : 74670100000000000090, 
jne $'h0000000000000167

Cycle                  369 ----------------------------------------------------

cycle        369
Decode : from Pc                  375 , expanded inst : 74670100000000000090, 
jne $'h0000000000000167
Exec : ppc                  384

Cycle                  370 ----------------------------------------------------

cycle        370
Stat update

Cycle                  371 ----------------------------------------------------

cycle        371
Fetch : from Pc                  359 , expanded inst : 50a70000000000000000, 
mrmovq 'h0000000000000000(%'h7), %'ha

Cycle                  372 ----------------------------------------------------

cycle        372
Decode : from Pc                  359 , expanded inst : 50a70000000000000000, 
mrmovq 'h0000000000000000(%'h7), %'ha
Exec : ppc                  369

Cycle                  373 ----------------------------------------------------

cycle        373
Loaded                   22 from                  208

Cycle                  374 ----------------------------------------------------

cycle        374
On 10, writes                   22	 (wrM)
Stat update

Cycle                  375 ----------------------------------------------------

cycle        375
Fetch : from Pc                  369 , expanded inst : 60a06087619674670100, 
addq %'ha, %'h0

Cycle                  376 ----------------------------------------------------

cycle        376
Decode : from Pc                  369 , expanded inst : 60a06087619674670100, 
addq %'ha, %'h0
Exec : ppc                  371

Cycle                  377 ----------------------------------------------------

cycle        377
On  0, writes                  253	 (wrE)
Stat update

Cycle                  378 ----------------------------------------------------

cycle        378
Fetch : from Pc                  371 , expanded inst : 60876196746701000000, 
addq %'h8, %'h7

Cycle                  379 ----------------------------------------------------

cycle        379
Decode : from Pc                  371 , expanded inst : 60876196746701000000, 
addq %'h8, %'h7
Exec : ppc                  373

Cycle                  380 ----------------------------------------------------

cycle        380
On  7, writes                  216	 (wrE)
Stat update

Cycle                  381 ----------------------------------------------------

cycle        381
Fetch : from Pc                  373 , expanded inst : 61967467010000000000, 
subq %'h9, %'h6

Cycle                  382 ----------------------------------------------------

cycle        382
Decode : from Pc                  373 , expanded inst : 61967467010000000000, 
subq %'h9, %'h6
Exec : ppc                  375

Cycle                  383 ----------------------------------------------------

cycle        383
On  6, writes                   10	 (wrE)
Stat update

Cycle                  384 ----------------------------------------------------

cycle        384
Fetch : from Pc                  375 , expanded inst : 74670100000000000090, 
jne $'h0000000000000167

Cycle                  385 ----------------------------------------------------

cycle        385
Decode : from Pc                  375 , expanded inst : 74670100000000000090, 
jne $'h0000000000000167
Exec : ppc                  384

Cycle                  386 ----------------------------------------------------

cycle        386
Stat update

Cycle                  387 ----------------------------------------------------

cycle        387
Fetch : from Pc                  359 , expanded inst : 50a70000000000000000, 
mrmovq 'h0000000000000000(%'h7), %'ha

Cycle                  388 ----------------------------------------------------

cycle        388
Decode : from Pc                  359 , expanded inst : 50a70000000000000000, 
mrmovq 'h0000000000000000(%'h7), %'ha
Exec : ppc                  369

Cycle                  389 ----------------------------------------------------

cycle        389
Loaded                   23 from                  216

Cycle                  390 ----------------------------------------------------

cycle        390
On 10, writes                   23	 (wrM)
Stat update

Cycle                  391 ----------------------------------------------------

cycle        391
Fetch : from Pc                  369 , expanded inst : 60a06087619674670100, 
addq %'ha, %'h0

Cycle                  392 ----------------------------------------------------

cycle        392
Decode : from Pc                  369 , expanded inst : 60a06087619674670100, 
addq %'ha, %'h0
Exec : ppc                  371

Cycle                  393 ----------------------------------------------------

cycle        393
On  0, writes                  276	 (wrE)
Stat update

Cycle                  394 ----------------------------------------------------

cycle        394
Fetch : from Pc                  371 , expanded inst : 60876196746701000000, 
addq %'h8, %'h7

Cycle                  395 ----------------------------------------------------

cycle        395
Decode : from Pc                  371 , expanded inst : 60876196746701000000, 
addq %'h8, %'h7
Exec : ppc                  373

Cycle                  396 ----------------------------------------------------

cycle        396
On  7, writes                  224	 (wrE)
Stat update

Cycle                  397 ----------------------------------------------------

cycle        397
Fetch : from Pc                  373 , expanded inst : 61967467010000000000, 
subq %'h9, %'h6

Cycle                  398 ----------------------------------------------------

cycle        398
Decode : from Pc                  373 , expanded inst : 61967467010000000000, 
subq %'h9, %'h6
Exec : ppc                  375

Cycle                  399 ----------------------------------------------------

cycle        399
On  6, writes                    9	 (wrE)
Stat update

Cycle                  400 ----------------------------------------------------

cycle        400
Fetch : from Pc                  375 , expanded inst : 74670100000000000090, 
jne $'h0000000000000167

Cycle                  401 ----------------------------------------------------

cycle        401
Decode : from Pc                  375 , expanded inst : 74670100000000000090, 
jne $'h0000000000000167
Exec : ppc                  384

Cycle                  402 ----------------------------------------------------

cycle        402
Stat update

Cycle                  403 ----------------------------------------------------

cycle        403
Fetch : from Pc                  359 , expanded inst : 50a70000000000000000, 
mrmovq 'h0000000000000000(%'h7), %'ha

Cycle                  404 ----------------------------------------------------

cycle        404
Decode : from Pc                  359 , expanded inst : 50a70000000000000000, 
mrmovq 'h0000000000000000(%'h7), %'ha
Exec : ppc                  369

Cycle                  405 ----------------------------------------------------

cycle        405
Loaded                   24 from                  224

Cycle                  406 ----------------------------------------------------

cycle        406
On 10, writes                   24	 (wrM)
Stat update

Cycle                  407 ----------------------------------------------------

cycle        407
Fetch : from Pc                  369 , expanded inst : 60a06087619674670100, 
addq %'ha, %'h0

Cycle                  408 ----------------------------------------------------

cycle        408
Decode : from Pc                  369 , expanded inst : 60a06087619674670100, 
addq %'ha, %'h0
Exec : ppc                  371

Cycle                  409 ----------------------------------------------------

cycle        409
On  0, writes                  300	 (wrE)
Stat update

Cycle                  410 ----------------------------------------------------

cycle        410
Fetch : from Pc                  371 , expanded inst : 60876196746701000000, 
addq %'h8, %'h7

Cycle                  411 ----------------------------------------------------

cycle        411
Decode : from Pc                  371 , expanded inst : 60876196746701000000, 
addq %'h8, %'h7
Exec : ppc                  373

Cycle                  412 ----------------------------------------------------

cycle        412
On  7, writes                  232	 (wrE)
Stat update

Cycle                  413 ----------------------------------------------------

cycle        413
Fetch : from Pc                  373 , expanded inst : 61967467010000000000, 
subq %'h9, %'h6

Cycle                  414 ----------------------------------------------------

cycle        414
Decode : from Pc                  373 , expanded inst : 61967467010000000000, 
subq %'h9, %'h6
Exec : ppc                  375

Cycle                  415 ----------------------------------------------------

cycle        415
On  6, writes                    8	 (wrE)
Stat update

Cycle                  416 ----------------------------------------------------

cycle        416
Fetch : from Pc                  375 , expanded inst : 74670100000000000090, 
jne $'h0000000000000167

Cycle                  417 ----------------------------------------------------

cycle        417
Decode : from Pc                  375 , expanded inst : 74670100000000000090, 
jne $'h0000000000000167
Exec : ppc                  384

Cycle                  418 ----------------------------------------------------

cycle        418
Stat update

Cycle                  419 ----------------------------------------------------

cycle        419
Fetch : from Pc                  359 , expanded inst : 50a70000000000000000, 
mrmovq 'h0000000000000000(%'h7), %'ha

Cycle                  420 ----------------------------------------------------

cycle        420
[...]

cycle        458
Fetch : from Pc                  371 , expanded inst : 60876196746701000000, 
addq %'h8, %'h7

Cycle                  459 ----------------------------------------------------

cycle        459
Decode : from Pc                  371 , expanded inst : 60876196746701000000, 
addq %'h8, %'h7
Exec : ppc                  373

Cycle                  460 ----------------------------------------------------

cycle        460
On  7, writes                  256	 (wrE)
Stat update

Cycle                  461 ----------------------------------------------------

cycle        461
Fetch : from Pc                  373 , expanded inst : 61967467010000000000, 
subq %'h9, %'h6

Cycle                  462 ----------------------------------------------------

cycle        462
Decode : from Pc                  373 , expanded inst : 61967467010000000000, 
subq %'h9, %'h6
Exec : ppc                  375

Cycle                  463 ----------------------------------------------------

cycle        463
On  6, writes                    5	 (wrE)
Stat update

Cycle                  464 ----------------------------------------------------

cycle        464
Fetch : from Pc                  375 , expanded inst : 74670100000000000090, 
jne $'h0000000000000167

Cycle                  465 ----------------------------------------------------

cycle        465
Decode : from Pc                  375 , expanded inst : 74670100000000000090, 
jne $'h0000000000000167
Exec : ppc                  384

Cycle                  466 ----------------------------------------------------

cycle        466
Stat update

Cycle                  467 ----------------------------------------------------

cycle        467
Fetch : from Pc                  359 , expanded inst : 50a70000000000000000, 
mrmovq 'h0000000000000000(%'h7), %'ha

Cycle                  468 ----------------------------------------------------

cycle        468
Decode : from Pc                  359 , expanded inst : 50a70000000000000000, 
mrmovq 'h0000000000000000(%'h7), %'ha
Exec : ppc                  369

Cycle                  469 ----------------------------------------------------

cycle        469
Loaded                   28 from                  256

Cycle                  470 ----------------------------------------------------

cycle        470
On 10, writes                   28	 (wrM)
Stat update

Cycle                  471 ----------------------------------------------------

cycle        471
Fetch : from Pc                  369 , expanded inst : 60a06087619674670100, 
addq %'ha, %'h0

Cycle                  472 ----------------------------------------------------

cycle        472
Decode : from Pc                  369 , expanded inst : 60a06087619674670100, 
addq %'ha, %'h0
Exec : ppc                  371

Cycle                  473 ----------------------------------------------------

cycle        473
On  0, writes                  406	 (wrE)
Stat update

Cycle                  474 ----------------------------------------------------

cycle        474
Fetch : from Pc                  371 , expanded inst : 60876196746701000000, 
addq %'h8, %'h7

Cycle                  475 ----------------------------------------------------

cycle        475
Decode : from Pc                  371 , expanded inst : 60876196746701000000, 
addq %'h8, %'h7
Exec : ppc                  373

Cycle                  476 ----------------------------------------------------

cycle        476
On  7, writes                  264	 (wrE)
Stat update

Cycle                  477 ----------------------------------------------------

cycle        477
Fetch : from Pc                  373 , expanded inst : 61967467010000000000, 
subq %'h9, %'h6

Cycle                  478 ----------------------------------------------------

cycle        478
Decode : from Pc                  373 , expanded inst : 61967467010000000000, 
subq %'h9, %'h6
Exec : ppc                  375

Cycle                  479 ----------------------------------------------------

cycle        479
On  6, writes                    4	 (wrE)
Stat update

Cycle                  480 ----------------------------------------------------

cycle        480
Fetch : from Pc                  375 , expanded inst : 74670100000000000090, 
jne $'h0000000000000167

Cycle                  481 ----------------------------------------------------

cycle        481
Decode : from Pc                  375 , expanded inst : 74670100000000000090, 
jne $'h0000000000000167
Exec : ppc                  384

Cycle                  482 ----------------------------------------------------

cycle        482
Stat update

Cycle                  483 ----------------------------------------------------

cycle        483
Fetch : from Pc                  359 , expanded inst : 50a70000000000000000, 
mrmovq 'h0000000000000000(%'h7), %'ha

Cycle                  484 ----------------------------------------------------

cycle        484
Decode : from Pc                  359 , expanded inst : 50a70000000000000000, 
mrmovq 'h0000000000000000(%'h7), %'ha
Exec : ppc                  369

Cycle                  485 ----------------------------------------------------

cycle        485
Loaded                   29 from                  264

Cycle                  486 ----------------------------------------------------

cycle        486
On 10, writes                   29	 (wrM)
Stat update

Cycle                  487 ----------------------------------------------------

cycle        487
Fetch : from Pc                  369 , expanded inst : 60a06087619674670100, 
addq %'ha, %'h0

Cycle                  488 ----------------------------------------------------

cycle        488
Decode : from Pc                  369 , expanded inst : 60a06087619674670100, 
addq %'ha, %'h0
Exec : ppc                  371

Cycle                  489 ----------------------------------------------------

cycle        489
On  0, writes                  435	 (wrE)
Stat update

Cycle                  490 ----------------------------------------------------

cycle        490
Fetch : from Pc                  371 , expanded inst : 60876196746701000000, 
addq %'h8, %'h7

Cycle                  491 ----------------------------------------------------

cycle        491
Decode : from Pc                  371 , expanded inst : 60876196746701000000, 
addq %'h8, %'h7
Exec : ppc                  373

Cycle                  492 ----------------------------------------------------

cycle        492
On  7, writes                  272	 (wrE)
Stat update

Cycle                  493 ----------------------------------------------------

cycle        493
Fetch : from Pc                  373 , expanded inst : 61967467010000000000, 
subq %'h9, %'h6

Cycle                  494 ----------------------------------------------------

cycle        494
Decode : from Pc                  373 , expanded inst : 61967467010000000000, 
subq %'h9, %'h6
Exec : ppc                  375

Cycle                  495 ----------------------------------------------------

cycle        495
On  6, writes                    3	 (wrE)
Stat update

Cycle                  496 ----------------------------------------------------

cycle        496
Fetch : from Pc                  375 , expanded inst : 74670100000000000090, 
jne $'h0000000000000167

Cycle                  497 ----------------------------------------------------

cycle        497
Decode : from Pc                  375 , expanded inst : 74670100000000000090, 
jne $'h0000000000000167
Exec : ppc                  384

Cycle                  498 ----------------------------------------------------

cycle        498
Stat update

Cycle                  499 ----------------------------------------------------

cycle        499
Fetch : from Pc                  359 , expanded inst : 50a70000000000000000, 
mrmovq 'h0000000000000000(%'h7), %'ha

Cycle                  500 ----------------------------------------------------

cycle        500
Decode : from Pc                  359 , expanded inst : 50a70000000000000000, 
mrmovq 'h0000000000000000(%'h7), %'ha
Exec : ppc                  369

Cycle                  501 ----------------------------------------------------

cycle        501
Loaded                   30 from                  272

Cycle                  502 ----------------------------------------------------

cycle        502
On 10, writes                   30	 (wrM)
Stat update

Cycle                  503 ----------------------------------------------------

cycle        503
Fetch : from Pc                  369 , expanded inst : 60a06087619674670100, 
addq %'ha, %'h0

Cycle                  504 ----------------------------------------------------

cycle        504
Decode : from Pc                  369 , expanded inst : 60a06087619674670100, 
addq %'ha, %'h0
Exec : ppc                  371

Cycle                  505 ----------------------------------------------------

cycle        505
On  0, writes                  465	 (wrE)
Stat update

Cycle                  506 ----------------------------------------------------

cycle        506
Fetch : from Pc                  371 , expanded inst : 60876196746701000000, 
addq %'h8, %'h7

Cycle                  507 ----------------------------------------------------

cycle        507
Decode : from Pc                  371 , expanded inst : 60876196746701000000, 
addq %'h8, %'h7
Exec : ppc                  373

Cycle                  508 ----------------------------------------------------

cycle        508
On  7, writes                  280	 (wrE)
Stat update

Cycle                  509 ----------------------------------------------------

cycle        509
Fetch : from Pc                  373 , expanded inst : 61967467010000000000, 
subq %'h9, %'h6

Cycle                  510 ----------------------------------------------------

cycle        510
Decode : from Pc                  373 , expanded inst : 61967467010000000000, 
subq %'h9, %'h6
Exec : ppc                  375

Cycle                  511 ----------------------------------------------------

cycle        511
On  6, writes                    2	 (wrE)
Stat update

Cycle                  512 ----------------------------------------------------

cycle        512
Fetch : from Pc                  375 , expanded inst : 74670100000000000090, 
jne $'h0000000000000167

Cycle                  513 ----------------------------------------------------

cycle        513
Decode : from Pc                  375 , expanded inst : 74670100000000000090, 
jne $'h0000000000000167
Exec : ppc                  384

Cycle                  514 ----------------------------------------------------

cycle        514
Stat update

Cycle                  515 ----------------------------------------------------

cycle        515
Fetch : from Pc                  359 , expanded inst : 50a70000000000000000, 
mrmovq 'h0000000000000000(%'h7), %'ha

Cycle                  516 ----------------------------------------------------

cycle        516
Decode : from Pc                  359 , expanded inst : 50a70000000000000000, 
mrmovq 'h0000000000000000(%'h7), %'ha
Exec : ppc                  369

Cycle                  517 ----------------------------------------------------

cycle        517
Loaded                   31 from                  280

Cycle                  518 ----------------------------------------------------

cycle        518
On 10, writes                   31	 (wrM)
Stat update

Cycle                  519 ----------------------------------------------------

cycle        519
Fetch : from Pc                  369 , expanded inst : 60a06087619674670100, 
addq %'ha, %'h0

Cycle                  520 ----------------------------------------------------

cycle        520
Decode : from Pc                  369 , expanded inst : 60a06087619674670100, 
addq %'ha, %'h0
Exec : ppc                  371

Cycle                  521 ----------------------------------------------------

cycle        521
On  0, writes                  496	 (wrE)
Stat update

Cycle                  522 ----------------------------------------------------

cycle        522
Fetch : from Pc                  371 , expanded inst : 60876196746701000000, 
addq %'h8, %'h7

Cycle                  523 ----------------------------------------------------

cycle        523
Decode : from Pc                  371 , expanded inst : 60876196746701000000, 
addq %'h8, %'h7
Exec : ppc                  373

Cycle                  524 ----------------------------------------------------

cycle        524
On  7, writes                  288	 (wrE)
Stat update

Cycle                  525 ----------------------------------------------------

cycle        525
Fetch : from Pc                  373 , expanded inst : 61967467010000000000, 
subq %'h9, %'h6

Cycle                  526 ----------------------------------------------------

cycle        526
Decode : from Pc                  373 , expanded inst : 61967467010000000000, 
subq %'h9, %'h6
Exec : ppc                  375

Cycle                  527 ----------------------------------------------------

cycle        527
On  6, writes                    1	 (wrE)
Stat update

Cycle                  528 ----------------------------------------------------

cycle        528
Fetch : from Pc                  375 , expanded inst : 74670100000000000090, 
jne $'h0000000000000167

Cycle                  529 ----------------------------------------------------

cycle        529
Decode : from Pc                  375 , expanded inst : 74670100000000000090, 
jne $'h0000000000000167
Exec : ppc                  384

Cycle                  530 ----------------------------------------------------

cycle        530
Stat update

Cycle                  531 ----------------------------------------------------

cycle        531
Fetch : from Pc                  359 , expanded inst : 50a70000000000000000, 
mrmovq 'h0000000000000000(%'h7), %'ha

Cycle                  532 ----------------------------------------------------

cycle        532
Decode : from Pc                  359 , expanded inst : 50a70000000000000000, 
mrmovq 'h0000000000000000(%'h7), %'ha
Exec : ppc                  369

Cycle                  533 ----------------------------------------------------

cycle        533
Loaded                   32 from                  288

Cycle                  534 ----------------------------------------------------

cycle        534
On 10, writes                   32	 (wrM)
Stat update

Cycle                  535 ----------------------------------------------------

cycle        535
Fetch : from Pc                  369 , expanded inst : 60a06087619674670100, 
addq %'ha, %'h0

Cycle                  536 ----------------------------------------------------

cycle        536
Decode : from Pc                  369 , expanded inst : 60a06087619674670100, 
addq %'ha, %'h0
Exec : ppc                  371

Cycle                  537 ----------------------------------------------------

cycle        537
On  0, writes                  528	 (wrE)
Stat update

Cycle                  538 ----------------------------------------------------

cycle        538
Fetch : from Pc                  371 , expanded inst : 60876196746701000000, 
addq %'h8, %'h7

Cycle                  539 ----------------------------------------------------

cycle        539
Decode : from Pc                  371 , expanded inst : 60876196746701000000, 
addq %'h8, %'h7
Exec : ppc                  373

Cycle                  540 ----------------------------------------------------

cycle        540
On  7, writes                  296	 (wrE)
Stat update

Cycle                  541 ----------------------------------------------------

cycle        541
Fetch : from Pc                  373 , expanded inst : 61967467010000000000, 
subq %'h9, %'h6

Cycle                  542 ----------------------------------------------------

cycle        542
Decode : from Pc                  373 , expanded inst : 61967467010000000000, 
subq %'h9, %'h6
Exec : ppc                  375

Cycle                  543 ----------------------------------------------------

cycle        543
On  6, writes                    0	 (wrE)
Stat update

Cycle                  544 ----------------------------------------------------

cycle        544
Fetch : from Pc                  375 , expanded inst : 74670100000000000090, 
jne $'h0000000000000167

Cycle                  545 ----------------------------------------------------

cycle        545
Decode : from Pc                  375 , expanded inst : 74670100000000000090, 
jne $'h0000000000000167
Exec : ppc                  384

Cycle                  546 ----------------------------------------------------

cycle        546
Stat update

Cycle                  547 ----------------------------------------------------

cycle        547
Fetch : from Pc                  384 , expanded inst : 9000000000000000aaaa, 
ret

Cycle                  548 ----------------------------------------------------

cycle        548
Decode : from Pc                  384 , expanded inst : 9000000000000000aaaa, 
ret
Exec : ppc                  385

Cycle                  549 ----------------------------------------------------

cycle        549
Loaded                  325 from                  496

Cycle                  550 ----------------------------------------------------

cycle        550
On  4, writes                  504	 (wrE)
Stat update

Cycle                  551 ----------------------------------------------------

cycle        551
Fetch : from Pc                  325 , expanded inst : 9030f808000000000000, 
ret

Cycle                  552 ----------------------------------------------------

cycle        552
Decode : from Pc                  325 , expanded inst : 9030f808000000000000, 
ret
Exec : ppc                  326

Cycle                  553 ----------------------------------------------------

cycle        553
Loaded                   19 from                  504

Cycle                  554 ----------------------------------------------------

cycle        554
On  4, writes                  512	 (wrE)
Stat update

Cycle                  555 ----------------------------------------------------

cycle        555
Fetch : from Pc                   19 , expanded inst : 30f81002000000000000, 
irmovq $'h0000000000000210,  %'h8

Cycle                  556 ----------------------------------------------------

cycle        556
Decode : from Pc                   19 , expanded inst : 30f81002000000000000, 
irmovq $'h0000000000000210,  %'h8
Exec : ppc                   29

Cycle                  557 ----------------------------------------------------

cycle        557
On  8, writes                  528	 (wrE)
Stat update

Cycle                  558 ----------------------------------------------------

cycle        558
Fetch : from Pc                   29 , expanded inst : 6180c00e000000000000, 
subq %'h8, %'h0

Cycle                  559 ----------------------------------------------------

cycle        559
Decode : from Pc                   29 , expanded inst : 6180c00e000000000000, 
subq %'h8, %'h0
Exec : ppc                   31

Cycle                  560 ----------------------------------------------------

cycle        560
On  0, writes                    0	 (wrE)
Stat update

Cycle                  561 ----------------------------------------------------

cycle        561
Fetch : from Pc                   31 , expanded inst : c00e0000000000000001, 
mtc0 %'h0, %'he

Cycle                  562 ----------------------------------------------------

cycle        562
Decode : from Pc                   31 , expanded inst : c00e0000000000000001, 
mtc0 %'h0, %'he
Exec : ppc                   33

Cycle                  563 ----------------------------------------------------

cycle        563
On 14, writes                    0	 (wrE)
Stat update

Cycle                  564 ----------------------------------------------------
