Warning: file 'memory.vmh' for memory 'dMem' has a gap at addresses 25 to 31.
Warning: file 'memory.vmh' for memory 'dMem' has a gap at addresses 393 to 67108863.
Warning: file 'memory.vmh' for memory 'iMem' has a gap at addresses 25 to 31.
Warning: file 'memory.vmh' for memory 'iMem' has a gap at addresses 393 to 67108863.

Cycle                    0 ----------------------------------------------------

cycle          0
Fetch : from Pc                    0 , expanded inst : 30f4000d000000000000, 
irmovq $'h0000000000000d00,  %'h4

Cycle                    1 ----------------------------------------------------

cycle          1
Decode : from Pc                    0 , expanded inst : 30f4000d000000000000, 
irmovq $'h0000000000000d00,  %'h4
Exec : ppc                   10

Cycle                    2 ----------------------------------------------------

cycle          2
On  4, writes                 3328	 (wrE)

Cycle                    3 ----------------------------------------------------

cycle          3
Fetch : from Pc                   10 , expanded inst : 30f5000d000000000000, 
irmovq $'h0000000000000d00,  %'h5

Cycle                    4 ----------------------------------------------------

cycle          4
Decode : from Pc                   10 , expanded inst : 30f5000d000000000000, 
irmovq $'h0000000000000d00,  %'h5
Exec : ppc                   20

Cycle                    5 ----------------------------------------------------

cycle          5
On  5, writes                 3328	 (wrE)

Cycle                    6 ----------------------------------------------------

cycle          6
Fetch : from Pc                   20 , expanded inst : 802c0000000000000030, 
call 'h000000000000002c

Cycle                    7 ----------------------------------------------------

cycle          7
Decode : from Pc                   20 , expanded inst : 802c0000000000000030, 
call 'h000000000000002c
Exec : ppc                   29

Cycle                    8 ----------------------------------------------------

cycle          8
Stored                   29 into                 3320
Stat update

Cycle                    9 ----------------------------------------------------

cycle          9
On  4, writes                 3320	 (wrE)

Cycle                   10 ----------------------------------------------------

cycle         10
Fetch : from Pc                   44 , expanded inst : a05f204530f213000000, 
push %'h5

Cycle                   11 ----------------------------------------------------

cycle         11
Decode : from Pc                   44 , expanded inst : a05f204530f213000000, 
push %'h5
Exec : ppc                   46

Cycle                   12 ----------------------------------------------------

cycle         12
Stored                 3328 into                 3312
Stat update

Cycle                   13 ----------------------------------------------------

cycle         13
On  4, writes                 3312	 (wrE)

Cycle                   14 ----------------------------------------------------

cycle         14
Fetch : from Pc                   46 , expanded inst : 204530f2130000000000, 
rrmovq %'h4, %'h5

Cycle                   15 ----------------------------------------------------

cycle         15
Decode : from Pc                   46 , expanded inst : 204530f2130000000000, 
rrmovq %'h4, %'h5
Exec : ppc                   48

Cycle                   16 ----------------------------------------------------

cycle         16
On  5, writes                 3312	 (wrE)

Cycle                   17 ----------------------------------------------------

cycle         17
Fetch : from Pc                   48 , expanded inst : 30f21300000000000000, 
irmovq $'h0000000000000013,  %'h2

Cycle                   18 ----------------------------------------------------

cycle         18
Decode : from Pc                   48 , expanded inst : 30f21300000000000000, 
irmovq $'h0000000000000013,  %'h2
Exec : ppc                   58

Cycle                   19 ----------------------------------------------------

cycle         19
On  2, writes                   19	 (wrE)

Cycle                   20 ----------------------------------------------------

cycle         20
Fetch : from Pc                   58 , expanded inst : 30f61300000000000000, 
irmovq $'h0000000000000013,  %'h6

Cycle                   21 ----------------------------------------------------

cycle         21
Decode : from Pc                   58 , expanded inst : 30f61300000000000000, 
irmovq $'h0000000000000013,  %'h6
Exec : ppc                   68

Cycle                   22 ----------------------------------------------------

cycle         22
On  6, writes                   19	 (wrE)

Cycle                   23 ----------------------------------------------------

cycle         23
Fetch : from Pc                   68 , expanded inst : 30f70001000000000000, 
irmovq $'h0000000000000100,  %'h7

Cycle                   24 ----------------------------------------------------

cycle         24
Decode : from Pc                   68 , expanded inst : 30f70001000000000000, 
irmovq $'h0000000000000100,  %'h7
Exec : ppc                   78

Cycle                   25 ----------------------------------------------------

cycle         25
On  7, writes                  256	 (wrE)

Cycle                   26 ----------------------------------------------------

cycle         26
Fetch : from Pc                   78 , expanded inst : 805c0000000000000020, 
call 'h000000000000005c

Cycle                   27 ----------------------------------------------------

cycle         27
Decode : from Pc                   78 , expanded inst : 805c0000000000000020, 
call 'h000000000000005c
Exec : ppc                   87

Cycle                   28 ----------------------------------------------------

cycle         28
Stored                   87 into                 3304
Stat update

Cycle                   29 ----------------------------------------------------

cycle         29
On  4, writes                 3304	 (wrE)

Cycle                   30 ----------------------------------------------------

cycle         30
Fetch : from Pc                   92 , expanded inst : a05fa03f204520682029, 
push %'h5

Cycle                   31 ----------------------------------------------------

cycle         31
Decode : from Pc                   92 , expanded inst : a05fa03f204520682029, 
push %'h5
Exec : ppc                   94

Cycle                   32 ----------------------------------------------------

cycle         32
Stored                 3312 into                 3296
Stat update

Cycle                   33 ----------------------------------------------------

cycle         33
On  4, writes                 3296	 (wrE)

Cycle                   34 ----------------------------------------------------

cycle         34
Fetch : from Pc                   94 , expanded inst : a03f2045206820296300, 
push %'h3

Cycle                   35 ----------------------------------------------------

cycle         35
Decode : from Pc                   94 , expanded inst : a03f2045206820296300, 
push %'h3
Exec : ppc                   96

Cycle                   36 ----------------------------------------------------

cycle         36
Stored                    0 into                 3288
Stat update

Cycle                   37 ----------------------------------------------------

cycle         37
On  4, writes                 3288	 (wrE)

Cycle                   38 ----------------------------------------------------

cycle         38
Fetch : from Pc                   96 , expanded inst : 20452068202963002073, 
rrmovq %'h4, %'h5

Cycle                   39 ----------------------------------------------------

cycle         39
Decode : from Pc                   96 , expanded inst : 20452068202963002073, 
rrmovq %'h4, %'h5
Exec : ppc                   98

Cycle                   40 ----------------------------------------------------

cycle         40
On  5, writes                 3288	 (wrE)

Cycle                   41 ----------------------------------------------------

cycle         41
Fetch : from Pc                   98 , expanded inst : 2068202963002073203a, 
rrmovq %'h6, %'h8

Cycle                   42 ----------------------------------------------------

cycle         42
Decode : from Pc                   98 , expanded inst : 2068202963002073203a, 
rrmovq %'h6, %'h8
Exec : ppc                  100

Cycle                   43 ----------------------------------------------------

cycle         43
On  8, writes                   19	 (wrE)

Cycle                   44 ----------------------------------------------------

cycle         44
Fetch : from Pc                  100 , expanded inst : 202963002073203a50ba, 
rrmovq %'h2, %'h9

Cycle                   45 ----------------------------------------------------

cycle         45
Decode : from Pc                  100 , expanded inst : 202963002073203a50ba, 
rrmovq %'h2, %'h9
Exec : ppc                  102

Cycle                   46 ----------------------------------------------------

cycle         46
On  9, writes                   19	 (wrE)

Cycle                   47 ----------------------------------------------------

cycle         47
Fetch : from Pc                  102 , expanded inst : 63002073203a50ba0000, 
xorq %'h0, %'h0

Cycle                   48 ----------------------------------------------------

cycle         48
Decode : from Pc                  102 , expanded inst : 63002073203a50ba0000, 
xorq %'h0, %'h0
Exec : ppc                  104

Cycle                   49 ----------------------------------------------------

cycle         49
On  0, writes                    0	 (wrE)

Cycle                   50 ----------------------------------------------------

cycle         50
Fetch : from Pc                  104 , expanded inst : 2073203a50ba00000000, 
rrmovq %'h7, %'h3

Cycle                   51 ----------------------------------------------------

cycle         51
Decode : from Pc                  104 , expanded inst : 2073203a50ba00000000, 
rrmovq %'h7, %'h3
Exec : ppc                  106

Cycle                   52 ----------------------------------------------------

cycle         52
On  3, writes                  256	 (wrE)

Cycle                   53 ----------------------------------------------------

cycle         53
Fetch : from Pc                  106 , expanded inst : 203a50ba000000000000, 
rrmovq %'h3, %'ha

Cycle                   54 ----------------------------------------------------

cycle         54
Decode : from Pc                  106 , expanded inst : 203a50ba000000000000, 
rrmovq %'h3, %'ha
Exec : ppc                  108

Cycle                   55 ----------------------------------------------------

cycle         55
On 10, writes                  256	 (wrE)

Cycle                   56 ----------------------------------------------------

cycle         56
Fetch : from Pc                  108 , expanded inst : 50ba0000000000000000, 
mrmovq 'h0000000000000000(%'ha), %'hb

Cycle                   57 ----------------------------------------------------

cycle         57
Decode : from Pc                  108 , expanded inst : 50ba0000000000000000, 
mrmovq 'h0000000000000000(%'ha), %'hb
Exec : ppc                  118

Cycle                   58 ----------------------------------------------------

cycle         58
Loaded                    1 from                  256
Stat update

Cycle                   59 ----------------------------------------------------

cycle         59
On 11, writes                    1	 (wrM)

Cycle                   60 ----------------------------------------------------

cycle         60
Fetch : from Pc                  118 , expanded inst : 60b030fb980000000000, 
addq %'hb, %'h0

Cycle                   61 ----------------------------------------------------

cycle         61
Decode : from Pc                  118 , expanded inst : 60b030fb980000000000, 
addq %'hb, %'h0
Exec : ppc                  120

Cycle                   62 ----------------------------------------------------

cycle         62
On  0, writes                    1	 (wrE)

Cycle                   63 ----------------------------------------------------

cycle         63
Fetch : from Pc                  120 , expanded inst : 30fb9800000000000000, 
irmovq $'h0000000000000098,  %'hb

Cycle                   64 ----------------------------------------------------

cycle         64
Decode : from Pc                  120 , expanded inst : 30fb9800000000000000, 
irmovq $'h0000000000000098,  %'hb
Exec : ppc                  130

Cycle                   65 ----------------------------------------------------

cycle         65
On 11, writes                  152	 (wrE)

Cycle                   66 ----------------------------------------------------

cycle         66
Fetch : from Pc                  130 , expanded inst : 60ba30fb010000000000, 
addq %'hb, %'ha

Cycle                   67 ----------------------------------------------------

cycle         67
Decode : from Pc                  130 , expanded inst : 60ba30fb010000000000, 
addq %'hb, %'ha
Exec : ppc                  132

Cycle                   68 ----------------------------------------------------

cycle         68
On 10, writes                  408	 (wrE)

Cycle                   69 ----------------------------------------------------

cycle         69
Fetch : from Pc                  132 , expanded inst : 30fb0100000000000000, 
irmovq $'h0000000000000001,  %'hb

Cycle                   70 ----------------------------------------------------

cycle         70
Decode : from Pc                  132 , expanded inst : 30fb0100000000000000, 
irmovq $'h0000000000000001,  %'hb
Exec : ppc                  142

Cycle                   71 ----------------------------------------------------

cycle         71
On 11, writes                    1	 (wrE)

Cycle                   72 ----------------------------------------------------

cycle         72
Fetch : from Pc                  142 , expanded inst : 61b8746c000000000000, 
subq %'hb, %'h8

Cycle                   73 ----------------------------------------------------

cycle         73
Decode : from Pc                  142 , expanded inst : 61b8746c000000000000, 
subq %'hb, %'h8
Exec : ppc                  144

Cycle                   74 ----------------------------------------------------

cycle         74
On  8, writes                   18	 (wrE)

Cycle                   75 ----------------------------------------------------

cycle         75
Fetch : from Pc                  144 , expanded inst : 746c0000000000000030, 
jne $'h000000000000006c

Cycle                   76 ----------------------------------------------------

cycle         76
Decode : from Pc                  144 , expanded inst : 746c0000000000000030, 
jne $'h000000000000006c
Exec : ppc                  153

Cycle                   77 ----------------------------------------------------

cycle         77

Cycle                   78 ----------------------------------------------------

cycle         78
Fetch : from Pc                  108 , expanded inst : 50ba0000000000000000, 
mrmovq 'h0000000000000000(%'ha), %'hb

Cycle                   79 ----------------------------------------------------

cycle         79
Decode : from Pc                  108 , expanded inst : 50ba0000000000000000, 
mrmovq 'h0000000000000000(%'ha), %'hb
Exec : ppc                  118

Cycle                   80 ----------------------------------------------------

cycle         80
Loaded                   20 from                  408
Stat update

Cycle                   81 ----------------------------------------------------

cycle         81
On 11, writes                   20	 (wrM)

Cycle                   82 ----------------------------------------------------

cycle         82
Fetch : from Pc                  118 , expanded inst : 60b030fb980000000000, 
addq %'hb, %'h0

Cycle                   83 ----------------------------------------------------

cycle         83
Decode : from Pc                  118 , expanded inst : 60b030fb980000000000, 
addq %'hb, %'h0
Exec : ppc                  120

Cycle                   84 ----------------------------------------------------

cycle         84
On  0, writes                   21	 (wrE)

Cycle                   85 ----------------------------------------------------

cycle         85
Fetch : from Pc                  120 , expanded inst : 30fb9800000000000000, 
irmovq $'h0000000000000098,  %'hb

Cycle                   86 ----------------------------------------------------

cycle         86
Decode : from Pc                  120 , expanded inst : 30fb9800000000000000, 
irmovq $'h0000000000000098,  %'hb
Exec : ppc                  130

Cycle                   87 ----------------------------------------------------

cycle         87
On 11, writes                  152	 (wrE)

Cycle                   88 ----------------------------------------------------

cycle         88
Fetch : from Pc                  130 , expanded inst : 60ba30fb010000000000, 
addq %'hb, %'ha

Cycle                   89 ----------------------------------------------------

cycle         89
Decode : from Pc                  130 , expanded inst : 60ba30fb010000000000, 
addq %'hb, %'ha
Exec : ppc                  132

Cycle                   90 ----------------------------------------------------

cycle         90
On 10, writes                  560	 (wrE)

Cycle                   91 ----------------------------------------------------

cycle         91
Fetch : from Pc                  132 , expanded inst : 30fb0100000000000000, 
irmovq $'h0000000000000001,  %'hb

Cycle                   92 ----------------------------------------------------

cycle         92
Decode : from Pc                  132 , expanded inst : 30fb0100000000000000, 
irmovq $'h0000000000000001,  %'hb
Exec : ppc                  142

Cycle                   93 ----------------------------------------------------

cycle         93
On 11, writes                    1	 (wrE)

Cycle                   94 ----------------------------------------------------

cycle         94
Fetch : from Pc                  142 , expanded inst : 61b8746c000000000000, 
subq %'hb, %'h8

Cycle                   95 ----------------------------------------------------

cycle         95
Decode : from Pc                  142 , expanded inst : 61b8746c000000000000, 
subq %'hb, %'h8
Exec : ppc                  144

Cycle                   96 ----------------------------------------------------

cycle         96
On  8, writes                   17	 (wrE)

Cycle                   97 ----------------------------------------------------

cycle         97
Fetch : from Pc                  144 , expanded inst : 746c0000000000000030, 
jne $'h000000000000006c

Cycle                   98 ----------------------------------------------------

cycle         98
Decode : from Pc                  144 , expanded inst : 746c0000000000000030, 
jne $'h000000000000006c
Exec : ppc                  153

Cycle                   99 ----------------------------------------------------

cycle         99

Cycle                  100 ----------------------------------------------------

cycle        100
Fetch : from Pc                  108 , expanded inst : 50ba0000000000000000, 
mrmovq 'h0000000000000000(%'ha), %'hb

Cycle                  101 ----------------------------------------------------

cycle        101
Decode : from Pc                  108 , expanded inst : 50ba0000000000000000, 
mrmovq 'h0000000000000000(%'ha), %'hb
Exec : ppc                  118

Cycle                  102 ----------------------------------------------------

cycle        102
Loaded                   39 from                  560
Stat update

Cycle                  103 ----------------------------------------------------

cycle        103
On 11, writes                   39	 (wrM)

Cycle                  104 ----------------------------------------------------

cycle        104
Fetch : from Pc                  118 , expanded inst : 60b030fb980000000000, 
addq %'hb, %'h0

Cycle                  105 ----------------------------------------------------

cycle        105
Decode : from Pc                  118 , expanded inst : 60b030fb980000000000, 
addq %'hb, %'h0
Exec : ppc                  120

Cycle                  106 ----------------------------------------------------

cycle        106
On  0, writes                   60	 (wrE)

Cycle                  107 ----------------------------------------------------

cycle        107
Fetch : from Pc                  120 , expanded inst : 30fb9800000000000000, 
irmovq $'h0000000000000098,  %'hb

Cycle                  108 ----------------------------------------------------

cycle        108
Decode : from Pc                  120 , expanded inst : 30fb9800000000000000, 
irmovq $'h0000000000000098,  %'hb
Exec : ppc                  130

Cycle                  109 ----------------------------------------------------

cycle        109
On 11, writes                  152	 (wrE)

Cycle                  110 ----------------------------------------------------

cycle        110
Fetch : from Pc                  130 , expanded inst : 60ba30fb010000000000, 
addq %'hb, %'ha

Cycle                  111 ----------------------------------------------------

cycle        111
Decode : from Pc                  130 , expanded inst : 60ba30fb010000000000, 
addq %'hb, %'ha
Exec : ppc                  132

Cycle                  112 ----------------------------------------------------

cycle        112
On 10, writes                  712	 (wrE)

Cycle                  113 ----------------------------------------------------

cycle        113
Fetch : from Pc                  132 , expanded inst : 30fb0100000000000000, 
irmovq $'h0000000000000001,  %'hb

Cycle                  114 ----------------------------------------------------

cycle        114
Decode : from Pc                  132 , expanded inst : 30fb0100000000000000, 
irmovq $'h0000000000000001,  %'hb
Exec : ppc                  142

Cycle                  115 ----------------------------------------------------

cycle        115
On 11, writes                    1	 (wrE)

Cycle                  116 ----------------------------------------------------

cycle        116
Fetch : from Pc                  142 , expanded inst : 61b8746c000000000000, 
subq %'hb, %'h8

Cycle                  117 ----------------------------------------------------

cycle        117
Decode : from Pc                  142 , expanded inst : 61b8746c000000000000, 
subq %'hb, %'h8
Exec : ppc                  144

Cycle                  118 ----------------------------------------------------

cycle        118
On  8, writes                   16	 (wrE)

Cycle                  119 ----------------------------------------------------

cycle        119
Fetch : from Pc                  144 , expanded inst : 746c0000000000000030, 
jne $'h000000000000006c

Cycle                  120 ----------------------------------------------------

cycle        120
Decode : from Pc                  144 , expanded inst : 746c0000000000000030, 
jne $'h000000000000006c
Exec : ppc                  153

Cycle                  121 ----------------------------------------------------

cycle        121

Cycle                  122 ----------------------------------------------------

cycle        122
Fetch : from Pc                  108 , expanded inst : 50ba0000000000000000, 
mrmovq 'h0000000000000000(%'ha), %'hb

Cycle                  123 ----------------------------------------------------

cycle        123
Decode : from Pc                  108 , expanded inst : 50ba0000000000000000, 
mrmovq 'h0000000000000000(%'ha), %'hb
Exec : ppc                  118

Cycle                  124 ----------------------------------------------------

cycle        124
Loaded                   58 from                  712
Stat update

Cycle                  125 ----------------------------------------------------

cycle        125
On 11, writes                   58	 (wrM)

Cycle                  126 ----------------------------------------------------

cycle        126
Fetch : from Pc                  118 , expanded inst : 60b030fb980000000000, 
addq %'hb, %'h0

Cycle                  127 ----------------------------------------------------

cycle        127
Decode : from Pc                  118 , expanded inst : 60b030fb980000000000, 
addq %'hb, %'h0
Exec : ppc                  120

Cycle                  128 ----------------------------------------------------

cycle        128
On  0, writes                  118	 (wrE)

Cycle                  129 ----------------------------------------------------

cycle        129
Fetch : from Pc                  120 , expanded inst : 30fb9800000000000000, 
irmovq $'h0000000000000098,  %'hb

Cycle                  130 ----------------------------------------------------

cycle        130
Decode : from Pc                  120 , expanded inst : 30fb9800000000000000, 
irmovq $'h0000000000000098,  %'hb
Exec : ppc                  130

Cycle                  131 ----------------------------------------------------

cycle        131
On 11, writes                  152	 (wrE)

Cycle                  132 ----------------------------------------------------

cycle        132
Fetch : from Pc                  130 , expanded inst : 60ba30fb010000000000, 
addq %'hb, %'ha

Cycle                  133 ----------------------------------------------------

cycle        133
Decode : from Pc                  130 , expanded inst : 60ba30fb010000000000, 
addq %'hb, %'ha
Exec : ppc                  132

Cycle                  134 ----------------------------------------------------

cycle        134
On 10, writes                  864	 (wrE)

Cycle                  135 ----------------------------------------------------

cycle        135
Fetch : from Pc                  132 , expanded inst : 30fb0100000000000000, 
irmovq $'h0000000000000001,  %'hb

Cycle                  136 ----------------------------------------------------

cycle        136
Decode : from Pc                  132 , expanded inst : 30fb0100000000000000, 
irmovq $'h0000000000000001,  %'hb
Exec : ppc                  142

Cycle                  137 ----------------------------------------------------

cycle        137
On 11, writes                    1	 (wrE)

Cycle                  138 ----------------------------------------------------

cycle        138
Fetch : from Pc                  142 , expanded inst : 61b8746c000000000000, 
subq %'hb, %'h8

Cycle                  139 ----------------------------------------------------

cycle        139
Decode : from Pc                  142 , expanded inst : 61b8746c000000000000, 
subq %'hb, %'h8
Exec : ppc                  144

Cycle                  140 ----------------------------------------------------

cycle        140
On  8, writes                   15	 (wrE)

Cycle                  141 ----------------------------------------------------

cycle        141
Fetch : from Pc                  144 , expanded inst : 746c0000000000000030, 
jne $'h000000000000006c

Cycle                  142 ----------------------------------------------------

cycle        142
Decode : from Pc                  144 , expanded inst : 746c0000000000000030, 
jne $'h000000000000006c
Exec : ppc                  153

Cycle                  143 ----------------------------------------------------

cycle        143

Cycle                  144 ----------------------------------------------------

cycle        144
Fetch : from Pc                  108 , expanded inst : 50ba0000000000000000, 
mrmovq 'h0000000000000000(%'ha), %'hb

Cycle                  145 ----------------------------------------------------

cycle        145
Decode : from Pc                  108 , expanded inst : 50ba0000000000000000, 
mrmovq 'h0000000000000000(%'ha), %'hb
Exec : ppc                  118

Cycle                  146 ----------------------------------------------------

cycle        146
Loaded                   77 from                  864
Stat update

Cycle                  147 ----------------------------------------------------

cycle        147
On 11, writes                   77	 (wrM)

Cycle                  148 ----------------------------------------------------

cycle        148
Fetch : from Pc                  118 , expanded inst : 60b030fb980000000000, 
addq %'hb, %'h0

Cycle                  149 ----------------------------------------------------

cycle        149
Decode : from Pc                  118 , expanded inst : 60b030fb980000000000, 
addq %'hb, %'h0
Exec : ppc                  120

Cycle                  150 ----------------------------------------------------

cycle        150
On  0, writes                  195	 (wrE)

Cycle                  151 ----------------------------------------------------

cycle        151
Fetch : from Pc                  120 , expanded inst : 30fb9800000000000000, 
irmovq $'h0000000000000098,  %'hb

Cycle                  152 ----------------------------------------------------

cycle        152
Decode : from Pc                  120 , expanded inst : 30fb9800000000000000, 
irmovq $'h0000000000000098,  %'hb
Exec : ppc                  130

Cycle                  153 ----------------------------------------------------

cycle        153
On 11, writes                  152	 (wrE)

Cycle                  154 ----------------------------------------------------

cycle        154
Fetch : from Pc                  130 , expanded inst : 60ba30fb010000000000, 
addq %'hb, %'ha

Cycle                  155 ----------------------------------------------------

cycle        155
Decode : from Pc                  130 , expanded inst : 60ba30fb010000000000, 
addq %'hb, %'ha
Exec : ppc                  132

Cycle                  156 ----------------------------------------------------

cycle        156
On 10, writes                 1016	 (wrE)

Cycle                  157 ----------------------------------------------------

cycle        157
Fetch : from Pc                  132 , expanded inst : 30fb0100000000000000, 
irmovq $'h0000000000000001,  %'hb

Cycle                  158 ----------------------------------------------------

cycle        158
Decode : from Pc                  132 , expanded inst : 30fb0100000000000000, 
irmovq $'h0000000000000001,  %'hb
Exec : ppc                  142

Cycle                  159 ----------------------------------------------------

cycle        159
On 11, writes                    1	 (wrE)

Cycle                  160 ----------------------------------------------------

cycle        160
Fetch : from Pc                  142 , expanded inst : 61b8746c000000000000, 
subq %'hb, %'h8

Cycle                  161 ----------------------------------------------------

cycle        161
Decode : from Pc                  142 , expanded inst : 61b8746c000000000000, 
subq %'hb, %'h8
Exec : ppc                  144

Cycle                  162 ----------------------------------------------------

cycle        162
On  8, writes                   14	 (wrE)

Cycle                  163 ----------------------------------------------------

cycle        163
Fetch : from Pc                  144 , expanded inst : 746c0000000000000030, 
jne $'h000000000000006c

Cycle                  164 ----------------------------------------------------

cycle        164
Decode : from Pc                  144 , expanded inst : 746c0000000000000030, 
jne $'h000000000000006c
Exec : ppc                  153

Cycle                  165 ----------------------------------------------------

cycle        165

Cycle                  166 ----------------------------------------------------

cycle        166
Fetch : from Pc                  108 , expanded inst : 50ba0000000000000000, 
mrmovq 'h0000000000000000(%'ha), %'hb

Cycle                  167 ----------------------------------------------------

cycle        167
Decode : from Pc                  108 , expanded inst : 50ba0000000000000000, 
mrmovq 'h0000000000000000(%'ha), %'hb
Exec : ppc                  118

Cycle                  168 ----------------------------------------------------

cycle        168
Loaded                   96 from                 1016
Stat update

Cycle                  169 ----------------------------------------------------

cycle        169
On 11, writes                   96	 (wrM)

Cycle                  170 ----------------------------------------------------

cycle        170
Fetch : from Pc                  118 , expanded inst : 60b030fb980000000000, 
addq %'hb, %'h0

Cycle                  171 ----------------------------------------------------

cycle        171
Decode : from Pc                  118 , expanded inst : 60b030fb980000000000, 
addq %'hb, %'h0
Exec : ppc                  120

Cycle                  172 ----------------------------------------------------

cycle        172
On  0, writes                  291	 (wrE)

Cycle                  173 ----------------------------------------------------

cycle        173
Fetch : from Pc                  120 , expanded inst : 30fb9800000000000000, 
irmovq $'h0000000000000098,  %'hb

Cycle                  174 ----------------------------------------------------

cycle        174
Decode : from Pc                  120 , expanded inst : 30fb9800000000000000, 
irmovq $'h0000000000000098,  %'hb
Exec : ppc                  130

Cycle                  175 ----------------------------------------------------

cycle        175
On 11, writes                  152	 (wrE)

Cycle                  176 ----------------------------------------------------

cycle        176
Fetch : from Pc                  130 , expanded inst : 60ba30fb010000000000, 
addq %'hb, %'ha

Cycle                  177 ----------------------------------------------------

cycle        177
Decode : from Pc                  130 , expanded inst : 60ba30fb010000000000, 
addq %'hb, %'ha
Exec : ppc                  132

Cycle                  178 ----------------------------------------------------

cycle        178
On 10, writes                 1168	 (wrE)

Cycle                  179 ----------------------------------------------------

cycle        179
Fetch : from Pc                  132 , expanded inst : 30fb0100000000000000, 
irmovq $'h0000000000000001,  %'hb

Cycle                  180 ----------------------------------------------------

cycle        180
Decode : from Pc                  132 , expanded inst : 30fb0100000000000000, 
irmovq $'h0000000000000001,  %'hb
Exec : ppc                  142

Cycle                  181 ----------------------------------------------------

cycle        181
On 11, writes                    1	 (wrE)

Cycle                  182 ----------------------------------------------------

cycle        182
Fetch : from Pc                  142 , expanded inst : 61b8746c000000000000, 
subq %'hb, %'h8

Cycle                  183 ----------------------------------------------------

cycle        183
Decode : from Pc                  142 , expanded inst : 61b8746c000000000000, 
subq %'hb, %'h8
Exec : ppc                  144

Cycle                  184 ----------------------------------------------------

cycle        184
On  8, writes                   13	 (wrE)

Cycle                  185 ----------------------------------------------------

cycle        185
Fetch : from Pc                  144 , expanded inst : 746c0000000000000030, 
jne $'h000000000000006c

Cycle                  186 ----------------------------------------------------

cycle        186
Decode : from Pc                  144 , expanded inst : 746c0000000000000030, 
jne $'h000000000000006c
Exec : ppc                  153

Cycle                  187 ----------------------------------------------------

cycle        187

Cycle                  188 ----------------------------------------------------

cycle        188
Fetch : from Pc                  108 , expanded inst : 50ba0000000000000000, 
mrmovq 'h0000000000000000(%'ha), %'hb

Cycle                  189 ----------------------------------------------------

cycle        189
Decode : from Pc                  108 , expanded inst : 50ba0000000000000000, 
mrmovq 'h0000000000000000(%'ha), %'hb
Exec : ppc                  118

Cycle                  190 ----------------------------------------------------

cycle        190
Loaded                  115 from                 1168
Stat update

Cycle                  191 ----------------------------------------------------

cycle        191
On 11, writes                  115	 (wrM)

Cycle                  192 ----------------------------------------------------

cycle        192
Fetch : from Pc                  118 , expanded inst : 60b030fb980000000000, 
addq %'hb, %'h0

Cycle                  193 ----------------------------------------------------

cycle        193
Decode : from Pc                  118 , expanded inst : 60b030fb980000000000, 
addq %'hb, %'h0
Exec : ppc                  120

Cycle                  194 ----------------------------------------------------

cycle        194
On  0, writes                  406	 (wrE)

Cycle                  195 ----------------------------------------------------

cycle        195
Fetch : from Pc                  120 , expanded inst : 30fb9800000000000000, 
irmovq $'h0000000000000098,  %'hb

Cycle                  196 ----------------------------------------------------

cycle        196
Decode : from Pc                  120 , expanded inst : 30fb9800000000000000, 
irmovq $'h0000000000000098,  %'hb
Exec : ppc                  130

Cycle                  197 ----------------------------------------------------

cycle        197
On 11, writes                  152	 (wrE)

Cycle                  198 ----------------------------------------------------

cycle        198
Fetch : from Pc                  130 , expanded inst : 60ba30fb010000000000, 
addq %'hb, %'ha

Cycle                  199 ----------------------------------------------------

cycle        199
Decode : from Pc                  130 , expanded inst : 60ba30fb010000000000, 
addq %'hb, %'ha
Exec : ppc                  132

Cycle                  200 ----------------------------------------------------

cycle        200
On 10, writes                 1320	 (wrE)

Cycle                  201 ----------------------------------------------------

cycle        201
Fetch : from Pc                  132 , expanded inst : 30fb0100000000000000, 
irmovq $'h0000000000000001,  %'hb

Cycle                  202 ----------------------------------------------------

cycle        202
Decode : from Pc                  132 , expanded inst : 30fb0100000000000000, 
irmovq $'h0000000000000001,  %'hb
Exec : ppc                  142

Cycle                  203 ----------------------------------------------------

cycle        203
On 11, writes                    1	 (wrE)

Cycle                  204 ----------------------------------------------------

cycle        204
Fetch : from Pc                  142 , expanded inst : 61b8746c000000000000, 
subq %'hb, %'h8

Cycle                  205 ----------------------------------------------------

cycle        205
Decode : from Pc                  142 , expanded inst : 61b8746c000000000000, 
subq %'hb, %'h8
Exec : ppc                  144

Cycle                  206 ----------------------------------------------------

cycle        206
On  8, writes                   12	 (wrE)

Cycle                  207 ----------------------------------------------------

cycle        207
Fetch : from Pc                  144 , expanded inst : 746c0000000000000030, 
jne $'h000000000000006c

Cycle                  208 ----------------------------------------------------

cycle        208
Decode : from Pc                  144 , expanded inst : 746c0000000000000030, 
jne $'h000000000000006c
Exec : ppc                  153

Cycle                  209 ----------------------------------------------------

cycle        209

Cycle                  210 ----------------------------------------------------

cycle        210
Fetch : from Pc                  108 , expanded inst : 50ba0000000000000000, 
mrmovq 'h0000000000000000(%'ha), %'hb

Cycle                  211 ----------------------------------------------------

cycle        211
Decode : from Pc                  108 , expanded inst : 50ba0000000000000000, 
mrmovq 'h0000000000000000(%'ha), %'hb
Exec : ppc                  118

Cycle                  212 ----------------------------------------------------

cycle        212
Loaded                  134 from                 1320
Stat update

Cycle                  213 ----------------------------------------------------

cycle        213
On 11, writes                  134	 (wrM)

Cycle                  214 ----------------------------------------------------

cycle        214
Fetch : from Pc                  118 , expanded inst : 60b030fb980000000000, 
addq %'hb, %'h0

Cycle                  215 ----------------------------------------------------

cycle        215
Decode : from Pc                  118 , expanded inst : 60b030fb980000000000, 
addq %'hb, %'h0
Exec : ppc                  120

Cycle                  216 ----------------------------------------------------

cycle        216
On  0, writes                  540	 (wrE)

Cycle                  217 ----------------------------------------------------

cycle        217
Fetch : from Pc                  120 , expanded inst : 30fb9800000000000000, 
irmovq $'h0000000000000098,  %'hb

Cycle                  218 ----------------------------------------------------

cycle        218
Decode : from Pc                  120 , expanded inst : 30fb9800000000000000, 
irmovq $'h0000000000000098,  %'hb
Exec : ppc                  130

Cycle                  219 ----------------------------------------------------

cycle        219
On 11, writes                  152	 (wrE)

Cycle                  220 ----------------------------------------------------

cycle        220
Fetch : from Pc                  130 , expanded inst : 60ba30fb010000000000, 
addq %'hb, %'ha

Cycle                  221 ----------------------------------------------------

cycle        221
Decode : from Pc                  130 , expanded inst : 60ba30fb010000000000, 
addq %'hb, %'ha
Exec : ppc                  132

Cycle                  222 ----------------------------------------------------

cycle        222
On 10, writes                 1472	 (wrE)

Cycle                  223 ----------------------------------------------------

cycle        223
Fetch : from Pc                  132 , expanded inst : 30fb0100000000000000, 
irmovq $'h0000000000000001,  %'hb

Cycle                  224 ----------------------------------------------------

cycle        224
Decode : from Pc                  132 , expanded inst : 30fb0100000000000000, 
irmovq $'h0000000000000001,  %'hb
Exec : ppc                  142

Cycle                  225 ----------------------------------------------------

cycle        225
On 11, writes                    1	 (wrE)

Cycle                  226 ----------------------------------------------------

cycle        226
Fetch : from Pc                  142 , expanded inst : 61b8746c000000000000, 
subq %'hb, %'h8

Cycle                  227 ----------------------------------------------------

cycle        227
Decode : from Pc                  142 , expanded inst : 61b8746c000000000000, 
subq %'hb, %'h8
Exec : ppc                  144

Cycle                  228 ----------------------------------------------------

cycle        228
On  8, writes                   11	 (wrE)

Cycle                  229 ----------------------------------------------------

cycle        229
Fetch : from Pc                  144 , expanded inst : 746c0000000000000030, 
jne $'h000000000000006c

Cycle                  230 ----------------------------------------------------

cycle        230
Decode : from Pc                  144 , expanded inst : 746c0000000000000030, 
jne $'h000000000000006c
Exec : ppc                  153

Cycle                  231 ----------------------------------------------------

cycle        231

Cycle                  232 ----------------------------------------------------

cycle        232
Fetch : from Pc                  108 , expanded inst : 50ba0000000000000000, 
mrmovq 'h0000000000000000(%'ha), %'hb

Cycle                  233 ----------------------------------------------------

cycle        233
Decode : from Pc                  108 , expanded inst : 50ba0000000000000000, 
mrmovq 'h0000000000000000(%'ha), %'hb
Exec : ppc                  118

Cycle                  234 ----------------------------------------------------

cycle        234
Loaded                  153 from                 1472
Stat update

Cycle                  235 ----------------------------------------------------

cycle        235
On 11, writes                  153	 (wrM)

Cycle                  236 ----------------------------------------------------

cycle        236
Fetch : from Pc                  118 , expanded inst : 60b030fb980000000000, 
addq %'hb, %'h0

Cycle                  237 ----------------------------------------------------

cycle        237
Decode : from Pc                  118 , expanded inst : 60b030fb980000000000, 
addq %'hb, %'h0
Exec : ppc                  120

Cycle                  238 ----------------------------------------------------

cycle        238
On  0, writes                  693	 (wrE)

Cycle                  239 ----------------------------------------------------

cycle        239
Fetch : from Pc                  120 , expanded inst : 30fb9800000000000000, 
irmovq $'h0000000000000098,  %'hb

Cycle                  240 ----------------------------------------------------

cycle        240
Decode : from Pc                  120 , expanded inst : 30fb9800000000000000, 
irmovq $'h0000000000000098,  %'hb
Exec : ppc                  130

Cycle                  241 ----------------------------------------------------

cycle        241
On 11, writes                  152	 (wrE)

Cycle                  242 ----------------------------------------------------

cycle        242
Fetch : from Pc                  130 , expanded inst : 60ba30fb010000000000, 
addq %'hb, %'ha

Cycle                  243 ----------------------------------------------------

cycle        243
Decode : from Pc                  130 , expanded inst : 60ba30fb010000000000, 
addq %'hb, %'ha
Exec : ppc                  132

Cycle                  244 ----------------------------------------------------

cycle        244
On 10, writes                 1624	 (wrE)

Cycle                  245 ----------------------------------------------------

cycle        245
Fetch : from Pc                  132 , expanded inst : 30fb0100000000000000, 
irmovq $'h0000000000000001,  %'hb

Cycle                  246 ----------------------------------------------------

cycle        246
Decode : from Pc                  132 , expanded inst : 30fb0100000000000000, 
irmovq $'h0000000000000001,  %'hb
Exec : ppc                  142

Cycle                  247 ----------------------------------------------------

cycle        247
On 11, writes                    1	 (wrE)

Cycle                  248 ----------------------------------------------------

cycle        248
Fetch : from Pc                  142 , expanded inst : 61b8746c000000000000, 
subq %'hb, %'h8

Cycle                  249 ----------------------------------------------------

cycle        249
Decode : from Pc                  142 , expanded inst : 61b8746c000000000000, 
subq %'hb, %'h8
Exec : ppc                  144

Cycle                  250 ----------------------------------------------------

cycle        250
On  8, writes                   10	 (wrE)

Cycle                  251 ----------------------------------------------------

cycle        251
Fetch : from Pc                  144 , expanded inst : 746c0000000000000030, 
jne $'h000000000000006c

Cycle                  252 ----------------------------------------------------

cycle        252
Decode : from Pc                  144 , expanded inst : 746c0000000000000030, 
jne $'h000000000000006c
Exec : ppc                  153

Cycle                  253 ----------------------------------------------------

cycle        253

Cycle                  254 ----------------------------------------------------

cycle        254
Fetch : from Pc                  108 , expanded inst : 50ba0000000000000000, 
mrmovq 'h0000000000000000(%'ha), %'hb

Cycle                  255 ----------------------------------------------------

cycle        255
Decode : from Pc                  108 , expanded inst : 50ba0000000000000000, 
mrmovq 'h0000000000000000(%'ha), %'hb
Exec : ppc                  118

Cycle                  256 ----------------------------------------------------

cycle        256
Loaded                  172 from                 1624
Stat update

Cycle                  257 ----------------------------------------------------

cycle        257
On 11, writes                  172	 (wrM)

Cycle                  258 ----------------------------------------------------

cycle        258
Fetch : from Pc                  118 , expanded inst : 60b030fb980000000000, 
addq %'hb, %'h0

Cycle                  259 ----------------------------------------------------

cycle        259
Decode : from Pc                  118 , expanded inst : 60b030fb980000000000, 
addq %'hb, %'h0
Exec : ppc                  120

Cycle                  260 ----------------------------------------------------

cycle        260
On  0, writes                  865	 (wrE)

Cycle                  261 ----------------------------------------------------

cycle        261
Fetch : from Pc                  120 , expanded inst : 30fb9800000000000000, 
irmovq $'h0000000000000098,  %'hb

Cycle                  262 ----------------------------------------------------

cycle        262
Decode : from Pc                  120 , expanded inst : 30fb9800000000000000, 
irmovq $'h0000000000000098,  %'hb
Exec : ppc                  130

Cycle                  263 ----------------------------------------------------

cycle        263
On 11, writes                  152	 (wrE)

Cycle                  264 ----------------------------------------------------

cycle        264
Fetch : from Pc                  130 , expanded inst : 60ba30fb010000000000, 
addq %'hb, %'ha

Cycle                  265 ----------------------------------------------------

cycle        265
Decode : from Pc                  130 , expanded inst : 60ba30fb010000000000, 
addq %'hb, %'ha
Exec : ppc                  132

Cycle                  266 ----------------------------------------------------

cycle        266
On 10, writes                 1776	 (wrE)

Cycle                  267 ----------------------------------------------------

cycle        267
Fetch : from Pc                  132 , expanded inst : 30fb0100000000000000, 
irmovq $'h0000000000000001,  %'hb

Cycle                  268 ----------------------------------------------------

cycle        268
Decode : from Pc                  132 , expanded inst : 30fb0100000000000000, 
irmovq $'h0000000000000001,  %'hb
Exec : ppc                  142

Cycle                  269 ----------------------------------------------------

cycle        269
On 11, writes                    1	 (wrE)

Cycle                  270 ----------------------------------------------------

cycle        270
Fetch : from Pc                  142 , expanded inst : 61b8746c000000000000, 
subq %'hb, %'h8

Cycle                  271 ----------------------------------------------------

cycle        271
Decode : from Pc                  142 , expanded inst : 61b8746c000000000000, 
subq %'hb, %'h8
Exec : ppc                  144

Cycle                  272 ----------------------------------------------------

cycle        272
On  8, writes                    9	 (wrE)

Cycle                  273 ----------------------------------------------------

cycle        273
Fetch : from Pc                  144 , expanded inst : 746c0000000000000030, 
jne $'h000000000000006c

Cycle                  274 ----------------------------------------------------

cycle        274
Decode : from Pc                  144 , expanded inst : 746c0000000000000030, 
jne $'h000000000000006c
Exec : ppc                  153

Cycle                  275 ----------------------------------------------------

cycle        275

Cycle                  276 ----------------------------------------------------

cycle        276
Fetch : from Pc                  108 , expanded inst : 50ba0000000000000000, 
mrmovq 'h0000000000000000(%'ha), %'hb

Cycle                  277 ----------------------------------------------------

cycle        277
Decode : from Pc                  108 , expanded inst : 50ba0000000000000000, 
mrmovq 'h0000000000000000(%'ha), %'hb
Exec : ppc                  118

Cycle                  278 ----------------------------------------------------

cycle        278
Loaded                  191 from                 1776
Stat update

Cycle                  279 ----------------------------------------------------

cycle        279
On 11, writes                  191	 (wrM)

Cycle                  280 ----------------------------------------------------

cycle        280
Fetch : from Pc                  118 , expanded inst : 60b030fb980000000000, 
addq %'hb, %'h0

Cycle                  281 ----------------------------------------------------

cycle        281
Decode : from Pc                  118 , expanded inst : 60b030fb980000000000, 
addq %'hb, %'h0
Exec : ppc                  120

Cycle                  282 ----------------------------------------------------

cycle        282
On  0, writes                 1056	 (wrE)

Cycle                  283 ----------------------------------------------------

cycle        283
Fetch : from Pc                  120 , expanded inst : 30fb9800000000000000, 
irmovq $'h0000000000000098,  %'hb

Cycle                  284 ----------------------------------------------------

cycle        284
Decode : from Pc                  120 , expanded inst : 30fb9800000000000000, 
irmovq $'h0000000000000098,  %'hb
Exec : ppc                  130

Cycle                  285 ----------------------------------------------------

cycle        285
On 11, writes                  152	 (wrE)

Cycle                  286 ----------------------------------------------------

cycle        286
Fetch : from Pc                  130 , expanded inst : 60ba30fb010000000000, 
addq %'hb, %'ha

Cycle                  287 ----------------------------------------------------

cycle        287
Decode : from Pc                  130 , expanded inst : 60ba30fb010000000000, 
addq %'hb, %'ha
Exec : ppc                  132

Cycle                  288 ----------------------------------------------------

cycle        288
On 10, writes                 1928	 (wrE)

Cycle                  289 ----------------------------------------------------

cycle        289
Fetch : from Pc                  132 , expanded inst : 30fb0100000000000000, 
irmovq $'h0000000000000001,  %'hb

Cycle                  290 ----------------------------------------------------

cycle        290
Decode : from Pc                  132 , expanded inst : 30fb0100000000000000, 
irmovq $'h0000000000000001,  %'hb
Exec : ppc                  142

Cycle                  291 ----------------------------------------------------

cycle        291
On 11, writes                    1	 (wrE)

Cycle                  292 ----------------------------------------------------

cycle        292
Fetch : from Pc                  142 , expanded inst : 61b8746c000000000000, 
subq %'hb, %'h8

Cycle                  293 ----------------------------------------------------

cycle        293
Decode : from Pc                  142 , expanded inst : 61b8746c000000000000, 
subq %'hb, %'h8
Exec : ppc                  144

Cycle                  294 ----------------------------------------------------

cycle        294
On  8, writes                    8	 (wrE)

Cycle                  295 ----------------------------------------------------

cycle        295
Fetch : from Pc                  144 , expanded inst : 746c0000000000000030, 
jne $'h000000000000006c

Cycle                  296 ----------------------------------------------------

cycle        296
Decode : from Pc                  144 , expanded inst : 746c0000000000000030, 
jne $'h000000000000006c
Exec : ppc                  153

Cycle                  297 ----------------------------------------------------

cycle        297

Cycle                  298 ----------------------------------------------------

cycle        298
Fetch : from Pc                  108 , expanded inst : 50ba0000000000000000, 
mrmovq 'h0000000000000000(%'ha), %'hb

Cycle                  299 ----------------------------------------------------

cycle        299
Decode : from Pc                  108 , expanded inst : 50ba0000000000000000, 
mrmovq 'h0000000000000000(%'ha), %'hb
Exec : ppc                  118

Cycle                  300 ----------------------------------------------------

cycle        300
Loaded                  210 from                 1928
Stat update

Cycle                  301 ----------------------------------------------------

cycle        301
On 11, writes                  210	 (wrM)

Cycle                  302 ----------------------------------------------------

cycle        302
Fetch : from Pc                  118 , expanded inst : 60b030fb980000000000, 
addq %'hb, %'h0

Cycle                  303 ----------------------------------------------------

cycle        303
Decode : from Pc                  118 , expanded inst : 60b030fb980000000000, 
addq %'hb, %'h0
Exec : ppc                  120

Cycle                  304 ----------------------------------------------------

cycle        304
On  0, writes                 1266	 (wrE)

Cycle                  305 ----------------------------------------------------

cycle        305
Fetch : from Pc                  120 , expanded inst : 30fb9800000000000000, 
irmovq $'h0000000000000098,  %'hb

Cycle                  306 ----------------------------------------------------

cycle        306
Decode : from Pc                  120 , expanded inst : 30fb9800000000000000, 
irmovq $'h0000000000000098,  %'hb
Exec : ppc                  130

Cycle                  307 ----------------------------------------------------

cycle        307
On 11, writes                  152	 (wrE)

Cycle                  308 ----------------------------------------------------

cycle        308
Fetch : from Pc                  130 , expanded inst : 60ba30fb010000000000, 
addq %'hb, %'ha

Cycle                  309 ----------------------------------------------------

cycle        309
Decode : from Pc                  130 , expanded inst : 60ba30fb010000000000, 
addq %'hb, %'ha
Exec : ppc                  132

Cycle                  310 ----------------------------------------------------

cycle        310
On 10, writes                 2080	 (wrE)

Cycle                  311 ----------------------------------------------------

cycle        311
Fetch : from Pc                  132 , expanded inst : 30fb0100000000000000, 
irmovq $'h0000000000000001,  %'hb

Cycle                  312 ----------------------------------------------------

cycle        312
Decode : from Pc                  132 , expanded inst : 30fb0100000000000000, 
irmovq $'h0000000000000001,  %'hb
Exec : ppc                  142

Cycle                  313 ----------------------------------------------------

cycle        313
On 11, writes                    1	 (wrE)

Cycle                  314 ----------------------------------------------------

cycle        314
Fetch : from Pc                  142 , expanded inst : 61b8746c000000000000, 
subq %'hb, %'h8

Cycle                  315 ----------------------------------------------------

cycle        315
Decode : from Pc                  142 , expanded inst : 61b8746c000000000000, 
subq %'hb, %'h8
Exec : ppc                  144

Cycle                  316 ----------------------------------------------------

cycle        316
On  8, writes                    7	 (wrE)

Cycle                  317 ----------------------------------------------------

cycle        317
Fetch : from Pc                  144 , expanded inst : 746c0000000000000030, 
jne $'h000000000000006c

Cycle                  318 ----------------------------------------------------

cycle        318
Decode : from Pc                  144 , expanded inst : 746c0000000000000030, 
jne $'h000000000000006c
Exec : ppc                  153

Cycle                  319 ----------------------------------------------------

cycle        319

Cycle                  320 ----------------------------------------------------

cycle        320
Fetch : from Pc                  108 , expanded inst : 50ba0000000000000000, 
mrmovq 'h0000000000000000(%'ha), %'hb

Cycle                  321 ----------------------------------------------------

cycle        321
Decode : from Pc                  108 , expanded inst : 50ba0000000000000000, 
mrmovq 'h0000000000000000(%'ha), %'hb
Exec : ppc                  118

Cycle                  322 ----------------------------------------------------

cycle        322
Loaded                  229 from                 2080
Stat update

Cycle                  323 ----------------------------------------------------

cycle        323
On 11, writes                  229	 (wrM)

Cycle                  324 ----------------------------------------------------

cycle        324
Fetch : from Pc                  118 , expanded inst : 60b030fb980000000000, 
addq %'hb, %'h0

Cycle                  325 ----------------------------------------------------

cycle        325
Decode : from Pc                  118 , expanded inst : 60b030fb980000000000, 
addq %'hb, %'h0
Exec : ppc                  120

Cycle                  326 ----------------------------------------------------

cycle        326
On  0, writes                 1495	 (wrE)

Cycle                  327 ----------------------------------------------------

cycle        327
Fetch : from Pc                  120 , expanded inst : 30fb9800000000000000, 
irmovq $'h0000000000000098,  %'hb

Cycle                  328 ----------------------------------------------------

cycle        328
Decode : from Pc                  120 , expanded inst : 30fb9800000000000000, 
irmovq $'h0000000000000098,  %'hb
Exec : ppc                  130

Cycle                  329 ----------------------------------------------------

cycle        329
On 11, writes                  152	 (wrE)

Cycle                  330 ----------------------------------------------------

cycle        330
Fetch : from Pc                  130 , expanded inst : 60ba30fb010000000000, 
addq %'hb, %'ha

Cycle                  331 ----------------------------------------------------

cycle        331
Decode : from Pc                  130 , expanded inst : 60ba30fb010000000000, 
addq %'hb, %'ha
Exec : ppc                  132

Cycle                  332 ----------------------------------------------------

cycle        332
On 10, writes                 2232	 (wrE)

Cycle                  333 ----------------------------------------------------

cycle        333
Fetch : from Pc                  132 , expanded inst : 30fb0100000000000000, 
irmovq $'h0000000000000001,  %'hb

Cycle                  334 ----------------------------------------------------

cycle        334
Decode : from Pc                  132 , expanded inst : 30fb0100000000000000, 
irmovq $'h0000000000000001,  %'hb
Exec : ppc                  142

Cycle                  335 ----------------------------------------------------

cycle        335
On 11, writes                    1	 (wrE)

Cycle                  336 ----------------------------------------------------

cycle        336
Fetch : from Pc                  142 , expanded inst : 61b8746c000000000000, 
subq %'hb, %'h8

Cycle                  337 ----------------------------------------------------

cycle        337
Decode : from Pc                  142 , expanded inst : 61b8746c000000000000, 
subq %'hb, %'h8
Exec : ppc                  144

Cycle                  338 ----------------------------------------------------

cycle        338
On  8, writes                    6	 (wrE)

Cycle                  339 ----------------------------------------------------

cycle        339
Fetch : from Pc                  144 , expanded inst : 746c0000000000000030, 
jne $'h000000000000006c

Cycle                  340 ----------------------------------------------------

cycle        340
Decode : from Pc                  144 , expanded inst : 746c0000000000000030, 
jne $'h000000000000006c
Exec : ppc                  153

Cycle                  341 ----------------------------------------------------

cycle        341

Cycle                  342 ----------------------------------------------------

cycle        342
Fetch : from Pc                  108 , expanded inst : 50ba0000000000000000, 
mrmovq 'h0000000000000000(%'ha), %'hb

Cycle                  343 ----------------------------------------------------

cycle        343
Decode : from Pc                  108 , expanded inst : 50ba0000000000000000, 
mrmovq 'h0000000000000000(%'ha), %'hb
Exec : ppc                  118

Cycle                  344 ----------------------------------------------------

cycle        344
Loaded                  248 from                 2232
Stat update

Cycle                  345 ----------------------------------------------------

cycle        345
On 11, writes                  248	 (wrM)

Cycle                  346 ----------------------------------------------------

cycle        346
Fetch : from Pc                  118 , expanded inst : 60b030fb980000000000, 
addq %'hb, %'h0

Cycle                  347 ----------------------------------------------------

cycle        347
Decode : from Pc                  118 , expanded inst : 60b030fb980000000000, 
addq %'hb, %'h0
Exec : ppc                  120

Cycle                  348 ----------------------------------------------------

cycle        348
On  0, writes                 1743	 (wrE)

Cycle                  349 ----------------------------------------------------

cycle        349
Fetch : from Pc                  120 , expanded inst : 30fb9800000000000000, 
irmovq $'h0000000000000098,  %'hb

Cycle                  350 ----------------------------------------------------

cycle        350
Decode : from Pc                  120 , expanded inst : 30fb9800000000000000, 
irmovq $'h0000000000000098,  %'hb
Exec : ppc                  130

Cycle                  351 ----------------------------------------------------

cycle        351
On 11, writes                  152	 (wrE)

Cycle                  352 ----------------------------------------------------

cycle        352
Fetch : from Pc                  130 , expanded inst : 60ba30fb010000000000, 
addq %'hb, %'ha

Cycle                  353 ----------------------------------------------------

cycle        353
Decode : from Pc                  130 , expanded inst : 60ba30fb010000000000, 
addq %'hb, %'ha
Exec : ppc                  132

Cycle                  354 ----------------------------------------------------

cycle        354
On 10, writes                 2384	 (wrE)

Cycle                  355 ----------------------------------------------------

cycle        355
Fetch : from Pc                  132 , expanded inst : 30fb0100000000000000, 
irmovq $'h0000000000000001,  %'hb

Cycle                  356 ----------------------------------------------------

cycle        356
Decode : from Pc                  132 , expanded inst : 30fb0100000000000000, 
irmovq $'h0000000000000001,  %'hb
Exec : ppc                  142

Cycle                  357 ----------------------------------------------------

cycle        357
On 11, writes                    1	 (wrE)

Cycle                  358 ----------------------------------------------------

cycle        358
Fetch : from Pc                  142 , expanded inst : 61b8746c000000000000, 
subq %'hb, %'h8

Cycle                  359 ----------------------------------------------------

cycle        359
Decode : from Pc                  142 , expanded inst : 61b8746c000000000000, 
subq %'hb, %'h8
Exec : ppc                  144

Cycle                  360 ----------------------------------------------------

cycle        360
On  8, writes                    5	 (wrE)

Cycle                  361 ----------------------------------------------------

cycle        361
Fetch : from Pc                  144 , expanded inst : 746c0000000000000030, 
jne $'h000000000000006c

Cycle                  362 ----------------------------------------------------

cycle        362
Decode : from Pc                  144 , expanded inst : 746c0000000000000030, 
jne $'h000000000000006c
Exec : ppc                  153

Cycle                  363 ----------------------------------------------------

cycle        363

Cycle                  364 ----------------------------------------------------

cycle        364
Fetch : from Pc                  108 , expanded inst : 50ba0000000000000000, 
mrmovq 'h0000000000000000(%'ha), %'hb

Cycle                  365 ----------------------------------------------------

cycle        365
Decode : from Pc                  108 , expanded inst : 50ba0000000000000000, 
mrmovq 'h0000000000000000(%'ha), %'hb
Exec : ppc                  118

Cycle                  366 ----------------------------------------------------

cycle        366
Loaded                  267 from                 2384
Stat update

Cycle                  367 ----------------------------------------------------

cycle        367
On 11, writes                  267	 (wrM)

Cycle                  368 ----------------------------------------------------

cycle        368
Fetch : from Pc                  118 , expanded inst : 60b030fb980000000000, 
addq %'hb, %'h0

Cycle                  369 ----------------------------------------------------

cycle        369
Decode : from Pc                  118 , expanded inst : 60b030fb980000000000, 
addq %'hb, %'h0
Exec : ppc                  120

Cycle                  370 ----------------------------------------------------

cycle        370
On  0, writes                 2010	 (wrE)

Cycle                  371 ----------------------------------------------------

cycle        371
Fetch : from Pc                  120 , expanded inst : 30fb9800000000000000, 
irmovq $'h0000000000000098,  %'hb

Cycle                  372 ----------------------------------------------------

cycle        372
Decode : from Pc                  120 , expanded inst : 30fb9800000000000000, 
irmovq $'h0000000000000098,  %'hb
Exec : ppc                  130

Cycle                  373 ----------------------------------------------------

cycle        373
On 11, writes                  152	 (wrE)

Cycle                  374 ----------------------------------------------------

cycle        374
Fetch : from Pc                  130 , expanded inst : 60ba30fb010000000000, 
addq %'hb, %'ha

Cycle                  375 ----------------------------------------------------

cycle        375
Decode : from Pc                  130 , expanded inst : 60ba30fb010000000000, 
addq %'hb, %'ha
Exec : ppc                  132

Cycle                  376 ----------------------------------------------------

cycle        376
On 10, writes                 2536	 (wrE)

Cycle                  377 ----------------------------------------------------

cycle        377
Fetch : from Pc                  132 , expanded inst : 30fb0100000000000000, 
irmovq $'h0000000000000001,  %'hb

Cycle                  378 ----------------------------------------------------

cycle        378
Decode : from Pc                  132 , expanded inst : 30fb0100000000000000, 
irmovq $'h0000000000000001,  %'hb
Exec : ppc                  142

Cycle                  379 ----------------------------------------------------

cycle        379
On 11, writes                    1	 (wrE)

Cycle                  380 ----------------------------------------------------

cycle        380
Fetch : from Pc                  142 , expanded inst : 61b8746c000000000000, 
subq %'hb, %'h8

Cycle                  381 ----------------------------------------------------

cycle        381
Decode : from Pc                  142 , expanded inst : 61b8746c000000000000, 
subq %'hb, %'h8
Exec : ppc                  144

Cycle                  382 ----------------------------------------------------

cycle        382
On  8, writes                    4	 (wrE)

Cycle                  383 ----------------------------------------------------

cycle        383
Fetch : from Pc                  144 , expanded inst : 746c0000000000000030, 
jne $'h000000000000006c

Cycle                  384 ----------------------------------------------------

cycle        384
Decode : from Pc                  144 , expanded inst : 746c0000000000000030, 
jne $'h000000000000006c
Exec : ppc                  153

Cycle                  385 ----------------------------------------------------

cycle        385

Cycle                  386 ----------------------------------------------------

cycle        386
Fetch : from Pc                  108 , expanded inst : 50ba0000000000000000, 
mrmovq 'h0000000000000000(%'ha), %'hb

Cycle                  387 ----------------------------------------------------

cycle        387
Decode : from Pc                  108 , expanded inst : 50ba0000000000000000, 
mrmovq 'h0000000000000000(%'ha), %'hb
Exec : ppc                  118

Cycle                  388 ----------------------------------------------------

cycle        388
Loaded                  286 from                 2536
Stat update

Cycle                  389 ----------------------------------------------------

cycle        389
On 11, writes                  286	 (wrM)

Cycle                  390 ----------------------------------------------------

cycle        390
Fetch : from Pc                  118 , expanded inst : 60b030fb980000000000, 
addq %'hb, %'h0

Cycle                  391 ----------------------------------------------------

cycle        391
Decode : from Pc                  118 , expanded inst : 60b030fb980000000000, 
addq %'hb, %'h0
Exec : ppc                  120

Cycle                  392 ----------------------------------------------------

cycle        392
On  0, writes                 2296	 (wrE)

Cycle                  393 ----------------------------------------------------

cycle        393
Fetch : from Pc                  120 , expanded inst : 30fb9800000000000000, 
irmovq $'h0000000000000098,  %'hb

Cycle                  394 ----------------------------------------------------

cycle        394
Decode : from Pc                  120 , expanded inst : 30fb9800000000000000, 
irmovq $'h0000000000000098,  %'hb
Exec : ppc                  130

Cycle                  395 ----------------------------------------------------

cycle        395
On 11, writes                  152	 (wrE)

Cycle                  396 ----------------------------------------------------

cycle        396
Fetch : from Pc                  130 , expanded inst : 60ba30fb010000000000, 
addq %'hb, %'ha

Cycle                  397 ----------------------------------------------------

cycle        397
Decode : from Pc                  130 , expanded inst : 60ba30fb010000000000, 
addq %'hb, %'ha
Exec : ppc                  132

Cycle                  398 ----------------------------------------------------

cycle        398
On 10, writes                 2688	 (wrE)

Cycle                  399 ----------------------------------------------------

cycle        399
Fetch : from Pc                  132 , expanded inst : 30fb0100000000000000, 
irmovq $'h0000000000000001,  %'hb

Cycle                  400 ----------------------------------------------------

cycle        400
Decode : from Pc                  132 , expanded inst : 30fb0100000000000000, 
irmovq $'h0000000000000001,  %'hb
Exec : ppc                  142

Cycle                  401 ----------------------------------------------------

cycle        401
On 11, writes                    1	 (wrE)

Cycle                  402 ----------------------------------------------------

cycle        402
Fetch : from Pc                  142 , expanded inst : 61b8746c000000000000, 
subq %'hb, %'h8

Cycle                  403 ----------------------------------------------------

cycle        403
Decode : from Pc                  142 , expanded inst : 61b8746c000000000000, 
subq %'hb, %'h8
Exec : ppc                  144

Cycle                  404 ----------------------------------------------------

cycle        404
On  8, writes                    3	 (wrE)

Cycle                  405 ----------------------------------------------------

cycle        405
Fetch : from Pc                  144 , expanded inst : 746c0000000000000030, 
jne $'h000000000000006c

Cycle                  406 ----------------------------------------------------

cycle        406
Decode : from Pc                  144 , expanded inst : 746c0000000000000030, 
jne $'h000000000000006c
Exec : ppc                  153

Cycle                  407 ----------------------------------------------------

cycle        407

Cycle                  408 ----------------------------------------------------

cycle        408
Fetch : from Pc                  108 , expanded inst : 50ba0000000000000000, 
mrmovq 'h0000000000000000(%'ha), %'hb

Cycle                  409 ----------------------------------------------------

cycle        409
Decode : from Pc                  108 , expanded inst : 50ba0000000000000000, 
mrmovq 'h0000000000000000(%'ha), %'hb
Exec : ppc                  118

Cycle                  410 ----------------------------------------------------

cycle        410
Loaded                  305 from                 2688
Stat update

Cycle                  411 ----------------------------------------------------

cycle        411
On 11, writes                  305	 (wrM)

Cycle                  412 ----------------------------------------------------

cycle        412
Fetch : from Pc                  118 , expanded inst : 60b030fb980000000000, 
addq %'hb, %'h0

Cycle                  413 ----------------------------------------------------

cycle        413
Decode : from Pc                  118 , expanded inst : 60b030fb980000000000, 
addq %'hb, %'h0
Exec : ppc                  120

Cycle                  414 ----------------------------------------------------

cycle        414
On  0, writes                 2601	 (wrE)

Cycle                  415 ----------------------------------------------------

cycle        415
Fetch : from Pc                  120 , expanded inst : 30fb9800000000000000, 
irmovq $'h0000000000000098,  %'hb

Cycle                  416 ----------------------------------------------------

cycle        416
Decode : from Pc                  120 , expanded inst : 30fb9800000000000000, 
irmovq $'h0000000000000098,  %'hb
Exec : ppc                  130

Cycle                  417 ----------------------------------------------------

cycle        417
On 11, writes                  152	 (wrE)

Cycle                  418 ----------------------------------------------------

cycle        418
Fetch : from Pc                  130 , expanded inst : 60ba30fb010000000000, 
addq %'hb, %'ha

Cycle                  419 ----------------------------------------------------

cycle        419
Decode : from Pc                  130 , expanded inst : 60ba30fb010000000000, 
addq %'hb, %'ha
[...]

cycle       8323
Fetch : from Pc                  132 , expanded inst : 30fb0100000000000000, 
irmovq $'h0000000000000001,  %'hb

Cycle                 8324 ----------------------------------------------------

cycle       8324
Decode : from Pc                  132 , expanded inst : 30fb0100000000000000, 
irmovq $'h0000000000000001,  %'hb
Exec : ppc                  142

Cycle                 8325 ----------------------------------------------------

cycle       8325
On 11, writes                    1	 (wrE)

Cycle                 8326 ----------------------------------------------------

cycle       8326
Fetch : from Pc                  142 , expanded inst : 61b8746c000000000000, 
subq %'hb, %'h8

Cycle                 8327 ----------------------------------------------------

cycle       8327
Decode : from Pc                  142 , expanded inst : 61b8746c000000000000, 
subq %'hb, %'h8
Exec : ppc                  144

Cycle                 8328 ----------------------------------------------------

cycle       8328
On  8, writes                    2	 (wrE)

Cycle                 8329 ----------------------------------------------------

cycle       8329
Fetch : from Pc                  144 , expanded inst : 746c0000000000000030, 
jne $'h000000000000006c

Cycle                 8330 ----------------------------------------------------

cycle       8330
Decode : from Pc                  144 , expanded inst : 746c0000000000000030, 
jne $'h000000000000006c
Exec : ppc                  153

Cycle                 8331 ----------------------------------------------------

cycle       8331

Cycle                 8332 ----------------------------------------------------

cycle       8332
Fetch : from Pc                  108 , expanded inst : 50ba0000000000000000, 
mrmovq 'h0000000000000000(%'ha), %'hb

Cycle                 8333 ----------------------------------------------------

cycle       8333
Decode : from Pc                  108 , expanded inst : 50ba0000000000000000, 
mrmovq 'h0000000000000000(%'ha), %'hb
Exec : ppc                  118

Cycle                 8334 ----------------------------------------------------

cycle       8334
Loaded                  342 from                 2984
Stat update

Cycle                 8335 ----------------------------------------------------

cycle       8335
On 11, writes                  342	 (wrM)

Cycle                 8336 ----------------------------------------------------

cycle       8336
Fetch : from Pc                  118 , expanded inst : 60b030fb980000000000, 
addq %'hb, %'h0

Cycle                 8337 ----------------------------------------------------

cycle       8337
Decode : from Pc                  118 , expanded inst : 60b030fb980000000000, 
addq %'hb, %'h0
Exec : ppc                  120

Cycle                 8338 ----------------------------------------------------

cycle       8338
On  0, writes                64980	 (wrE)

Cycle                 8339 ----------------------------------------------------

cycle       8339
Fetch : from Pc                  120 , expanded inst : 30fb9800000000000000, 
irmovq $'h0000000000000098,  %'hb

Cycle                 8340 ----------------------------------------------------

cycle       8340
Decode : from Pc                  120 , expanded inst : 30fb9800000000000000, 
irmovq $'h0000000000000098,  %'hb
Exec : ppc                  130

Cycle                 8341 ----------------------------------------------------

cycle       8341
On 11, writes                  152	 (wrE)

Cycle                 8342 ----------------------------------------------------

cycle       8342
Fetch : from Pc                  130 , expanded inst : 60ba30fb010000000000, 
addq %'hb, %'ha

Cycle                 8343 ----------------------------------------------------

cycle       8343
Decode : from Pc                  130 , expanded inst : 60ba30fb010000000000, 
addq %'hb, %'ha
Exec : ppc                  132

Cycle                 8344 ----------------------------------------------------

cycle       8344
On 10, writes                 3136	 (wrE)

Cycle                 8345 ----------------------------------------------------

cycle       8345
Fetch : from Pc                  132 , expanded inst : 30fb0100000000000000, 
irmovq $'h0000000000000001,  %'hb

Cycle                 8346 ----------------------------------------------------

cycle       8346
Decode : from Pc                  132 , expanded inst : 30fb0100000000000000, 
irmovq $'h0000000000000001,  %'hb
Exec : ppc                  142

Cycle                 8347 ----------------------------------------------------

cycle       8347
On 11, writes                    1	 (wrE)

Cycle                 8348 ----------------------------------------------------

cycle       8348
Fetch : from Pc                  142 , expanded inst : 61b8746c000000000000, 
subq %'hb, %'h8

Cycle                 8349 ----------------------------------------------------

cycle       8349
Decode : from Pc                  142 , expanded inst : 61b8746c000000000000, 
subq %'hb, %'h8
Exec : ppc                  144

Cycle                 8350 ----------------------------------------------------

cycle       8350
On  8, writes                    1	 (wrE)

Cycle                 8351 ----------------------------------------------------

cycle       8351
Fetch : from Pc                  144 , expanded inst : 746c0000000000000030, 
jne $'h000000000000006c

Cycle                 8352 ----------------------------------------------------

cycle       8352
Decode : from Pc                  144 , expanded inst : 746c0000000000000030, 
jne $'h000000000000006c
Exec : ppc                  153

Cycle                 8353 ----------------------------------------------------

cycle       8353

Cycle                 8354 ----------------------------------------------------

cycle       8354
Fetch : from Pc                  108 , expanded inst : 50ba0000000000000000, 
mrmovq 'h0000000000000000(%'ha), %'hb

Cycle                 8355 ----------------------------------------------------

cycle       8355
Decode : from Pc                  108 , expanded inst : 50ba0000000000000000, 
mrmovq 'h0000000000000000(%'ha), %'hb
Exec : ppc                  118

Cycle                 8356 ----------------------------------------------------

cycle       8356
Loaded                  361 from                 3136
Stat update

Cycle                 8357 ----------------------------------------------------

cycle       8357
On 11, writes                  361	 (wrM)

Cycle                 8358 ----------------------------------------------------

cycle       8358
Fetch : from Pc                  118 , expanded inst : 60b030fb980000000000, 
addq %'hb, %'h0

Cycle                 8359 ----------------------------------------------------

cycle       8359
Decode : from Pc                  118 , expanded inst : 60b030fb980000000000, 
addq %'hb, %'h0
Exec : ppc                  120

Cycle                 8360 ----------------------------------------------------

cycle       8360
On  0, writes                65341	 (wrE)

Cycle                 8361 ----------------------------------------------------

cycle       8361
Fetch : from Pc                  120 , expanded inst : 30fb9800000000000000, 
irmovq $'h0000000000000098,  %'hb

Cycle                 8362 ----------------------------------------------------

cycle       8362
Decode : from Pc                  120 , expanded inst : 30fb9800000000000000, 
irmovq $'h0000000000000098,  %'hb
Exec : ppc                  130

Cycle                 8363 ----------------------------------------------------

cycle       8363
On 11, writes                  152	 (wrE)

Cycle                 8364 ----------------------------------------------------

cycle       8364
Fetch : from Pc                  130 , expanded inst : 60ba30fb010000000000, 
addq %'hb, %'ha

Cycle                 8365 ----------------------------------------------------

cycle       8365
Decode : from Pc                  130 , expanded inst : 60ba30fb010000000000, 
addq %'hb, %'ha
Exec : ppc                  132

Cycle                 8366 ----------------------------------------------------

cycle       8366
On 10, writes                 3288	 (wrE)

Cycle                 8367 ----------------------------------------------------

cycle       8367
Fetch : from Pc                  132 , expanded inst : 30fb0100000000000000, 
irmovq $'h0000000000000001,  %'hb

Cycle                 8368 ----------------------------------------------------

cycle       8368
Decode : from Pc                  132 , expanded inst : 30fb0100000000000000, 
irmovq $'h0000000000000001,  %'hb
Exec : ppc                  142

Cycle                 8369 ----------------------------------------------------

cycle       8369
On 11, writes                    1	 (wrE)

Cycle                 8370 ----------------------------------------------------

cycle       8370
Fetch : from Pc                  142 , expanded inst : 61b8746c000000000000, 
subq %'hb, %'h8

Cycle                 8371 ----------------------------------------------------

cycle       8371
Decode : from Pc                  142 , expanded inst : 61b8746c000000000000, 
subq %'hb, %'h8
Exec : ppc                  144

Cycle                 8372 ----------------------------------------------------

cycle       8372
On  8, writes                    0	 (wrE)

Cycle                 8373 ----------------------------------------------------

cycle       8373
Fetch : from Pc                  144 , expanded inst : 746c0000000000000030, 
jne $'h000000000000006c

Cycle                 8374 ----------------------------------------------------

cycle       8374
Decode : from Pc                  144 , expanded inst : 746c0000000000000030, 
jne $'h000000000000006c
Exec : ppc                  153

Cycle                 8375 ----------------------------------------------------

cycle       8375

Cycle                 8376 ----------------------------------------------------

cycle       8376
Fetch : from Pc                  153 , expanded inst : 30fb0800000000000000, 
irmovq $'h0000000000000008,  %'hb

Cycle                 8377 ----------------------------------------------------

cycle       8377
Decode : from Pc                  153 , expanded inst : 30fb0800000000000000, 
irmovq $'h0000000000000008,  %'hb
Exec : ppc                  163

Cycle                 8378 ----------------------------------------------------

cycle       8378
On 11, writes                    8	 (wrE)

Cycle                 8379 ----------------------------------------------------

cycle       8379
Fetch : from Pc                  163 , expanded inst : 60b3206830fb01000000, 
addq %'hb, %'h3

Cycle                 8380 ----------------------------------------------------

cycle       8380
Decode : from Pc                  163 , expanded inst : 60b3206830fb01000000, 
addq %'hb, %'h3
Exec : ppc                  165

Cycle                 8381 ----------------------------------------------------

cycle       8381
On  3, writes                  408	 (wrE)

Cycle                 8382 ----------------------------------------------------

cycle       8382
Fetch : from Pc                  165 , expanded inst : 206830fb010000000000, 
rrmovq %'h6, %'h8

Cycle                 8383 ----------------------------------------------------

cycle       8383
Decode : from Pc                  165 , expanded inst : 206830fb010000000000, 
rrmovq %'h6, %'h8
Exec : ppc                  167

Cycle                 8384 ----------------------------------------------------

cycle       8384
On  8, writes                   19	 (wrE)

Cycle                 8385 ----------------------------------------------------

cycle       8385
Fetch : from Pc                  167 , expanded inst : 30fb0100000000000000, 
irmovq $'h0000000000000001,  %'hb

Cycle                 8386 ----------------------------------------------------

cycle       8386
Decode : from Pc                  167 , expanded inst : 30fb0100000000000000, 
irmovq $'h0000000000000001,  %'hb
Exec : ppc                  177

Cycle                 8387 ----------------------------------------------------

cycle       8387
On 11, writes                    1	 (wrE)

Cycle                 8388 ----------------------------------------------------

cycle       8388
Fetch : from Pc                  177 , expanded inst : 61b9746a000000000000, 
subq %'hb, %'h9

Cycle                 8389 ----------------------------------------------------

cycle       8389
Decode : from Pc                  177 , expanded inst : 61b9746a000000000000, 
subq %'hb, %'h9
Exec : ppc                  179

Cycle                 8390 ----------------------------------------------------

cycle       8390
On  9, writes                    0	 (wrE)

Cycle                 8391 ----------------------------------------------------

cycle       8391
Fetch : from Pc                  179 , expanded inst : 746a0000000000000020, 
jne $'h000000000000006a

Cycle                 8392 ----------------------------------------------------

cycle       8392
Decode : from Pc                  179 , expanded inst : 746a0000000000000020, 
jne $'h000000000000006a
Exec : ppc                  188

Cycle                 8393 ----------------------------------------------------

cycle       8393

Cycle                 8394 ----------------------------------------------------

cycle       8394
Fetch : from Pc                  188 , expanded inst : 2054b03fb05f90000000, 
rrmovq %'h5, %'h4

Cycle                 8395 ----------------------------------------------------

cycle       8395
Decode : from Pc                  188 , expanded inst : 2054b03fb05f90000000, 
rrmovq %'h5, %'h4
Exec : ppc                  190

Cycle                 8396 ----------------------------------------------------

cycle       8396
On  4, writes                 3288	 (wrE)

Cycle                 8397 ----------------------------------------------------

cycle       8397
Fetch : from Pc                  190 , expanded inst : b03fb05f900000000000, 
pop %'h3

Cycle                 8398 ----------------------------------------------------

cycle       8398
Decode : from Pc                  190 , expanded inst : b03fb05f900000000000, 
pop %'h3
Exec : ppc                  192

Cycle                 8399 ----------------------------------------------------

cycle       8399
Loaded                    0 from                 3288
Stat update

Cycle                 8400 ----------------------------------------------------

cycle       8400
On  4, writes                 3296	 (wrE)
On  3, writes                    0	 (wrM)

Cycle                 8401 ----------------------------------------------------

cycle       8401
Fetch : from Pc                  192 , expanded inst : b05f900000000000aaaa, 
pop %'h5

Cycle                 8402 ----------------------------------------------------

cycle       8402
Decode : from Pc                  192 , expanded inst : b05f900000000000aaaa, 
pop %'h5
Exec : ppc                  194

Cycle                 8403 ----------------------------------------------------

cycle       8403
Loaded                 3312 from                 3296
Stat update

Cycle                 8404 ----------------------------------------------------

cycle       8404
On  4, writes                 3304	 (wrE)
On  5, writes                 3312	 (wrM)

Cycle                 8405 ----------------------------------------------------

cycle       8405
Fetch : from Pc                  194 , expanded inst : 900000000000aaaaaaaa, 
ret

Cycle                 8406 ----------------------------------------------------

cycle       8406
Decode : from Pc                  194 , expanded inst : 900000000000aaaaaaaa, 
ret
Exec : ppc                  195

Cycle                 8407 ----------------------------------------------------

cycle       8407
Loaded                   87 from                 3304
Stat update

Cycle                 8408 ----------------------------------------------------

cycle       8408
On  4, writes                 3312	 (wrE)

Cycle                 8409 ----------------------------------------------------

cycle       8409
Fetch : from Pc                   87 , expanded inst : 2054b05f90a05fa03f20, 
rrmovq %'h5, %'h4

Cycle                 8410 ----------------------------------------------------

cycle       8410
Decode : from Pc                   87 , expanded inst : 2054b05f90a05fa03f20, 
rrmovq %'h5, %'h4
Exec : ppc                   89

Cycle                 8411 ----------------------------------------------------

cycle       8411
On  4, writes                 3312	 (wrE)

Cycle                 8412 ----------------------------------------------------

cycle       8412
Fetch : from Pc                   89 , expanded inst : b05f90a05fa03f204520, 
pop %'h5

Cycle                 8413 ----------------------------------------------------

cycle       8413
Decode : from Pc                   89 , expanded inst : b05f90a05fa03f204520, 
pop %'h5
Exec : ppc                   91

Cycle                 8414 ----------------------------------------------------

cycle       8414
Loaded                 3328 from                 3312
Stat update

Cycle                 8415 ----------------------------------------------------

cycle       8415
On  4, writes                 3320	 (wrE)
On  5, writes                 3328	 (wrM)

Cycle                 8416 ----------------------------------------------------

cycle       8416
Fetch : from Pc                   91 , expanded inst : 90a05fa03f2045206820, 
ret

Cycle                 8417 ----------------------------------------------------

cycle       8417
Decode : from Pc                   91 , expanded inst : 90a05fa03f2045206820, 
ret
Exec : ppc                   92

Cycle                 8418 ----------------------------------------------------

cycle       8418
Loaded                   29 from                 3320
Stat update

Cycle                 8419 ----------------------------------------------------

cycle       8419
On  4, writes                 3328	 (wrE)

Cycle                 8420 ----------------------------------------------------

cycle       8420
Fetch : from Pc                   29 , expanded inst : 30f83dff000000000000, 
irmovq $'h000000000000ff3d,  %'h8

Cycle                 8421 ----------------------------------------------------

cycle       8421
Decode : from Pc                   29 , expanded inst : 30f83dff000000000000, 
irmovq $'h000000000000ff3d,  %'h8
Exec : ppc                   39

Cycle                 8422 ----------------------------------------------------

cycle       8422
On  8, writes                65341	 (wrE)

Cycle                 8423 ----------------------------------------------------

cycle       8423
Fetch : from Pc                   39 , expanded inst : 6180c00e00a05f204530, 
subq %'h8, %'h0

Cycle                 8424 ----------------------------------------------------

cycle       8424
Decode : from Pc                   39 , expanded inst : 6180c00e00a05f204530, 
subq %'h8, %'h0
Exec : ppc                   41

Cycle                 8425 ----------------------------------------------------

cycle       8425
On  0, writes                    0	 (wrE)

Cycle                 8426 ----------------------------------------------------

cycle       8426
Fetch : from Pc                   41 , expanded inst : c00e00a05f204530f213, 
mtc0 %'h0, %'he

Cycle                 8427 ----------------------------------------------------

cycle       8427
Decode : from Pc                   41 , expanded inst : c00e00a05f204530f213, 
mtc0 %'h0, %'he
Exec : ppc                   43

Cycle                 8428 ----------------------------------------------------

cycle       8428
On 14, writes                    0	 (wrE)

Cycle                 8429 ----------------------------------------------------
