Warning: file 'memory.vmh' for memory 'dMem' has a gap at addresses 4 to 7.
Warning: file 'memory.vmh' for memory 'dMem' has a gap at addresses 24 to 31.
Warning: file 'memory.vmh' for memory 'dMem' has a gap at addresses 49 to 63.
Warning: file 'memory.vmh' for memory 'dMem' has a gap at addresses 84 to 67108863.
Warning: file 'memory.vmh' for memory 'iMem' has a gap at addresses 4 to 7.
Warning: file 'memory.vmh' for memory 'iMem' has a gap at addresses 24 to 31.
Warning: file 'memory.vmh' for memory 'iMem' has a gap at addresses 49 to 63.
Warning: file 'memory.vmh' for memory 'iMem' has a gap at addresses 84 to 67108863.

Cycle                    0 ----------------------------------------------------

cycle          0
Fetch : from Pc                    0 , expanded inst : 30f50002000000000000, 
irmovq $'h0000000000000200,  %'h5

Cycle                    1 ----------------------------------------------------

cycle          1
Decode : from Pc                    0 , expanded inst : 30f50002000000000000, 
irmovq $'h0000000000000200,  %'h5
Exec : ppc                   10

Cycle                    2 ----------------------------------------------------

cycle          2
On  5, writes                  512	 (wrE)

Cycle                    3 ----------------------------------------------------

cycle          3
Fetch : from Pc                   10 , expanded inst : 30f40002000000000000, 
irmovq $'h0000000000000200,  %'h4

Cycle                    4 ----------------------------------------------------

cycle          4
Decode : from Pc                   10 , expanded inst : 30f40002000000000000, 
irmovq $'h0000000000000200,  %'h4
Exec : ppc                   20

Cycle                    5 ----------------------------------------------------

cycle          5
On  4, writes                  512	 (wrE)

Cycle                    6 ----------------------------------------------------

cycle          6
Fetch : from Pc                   20 , expanded inst : 70000100000000000000, 
jmp $'h0000000000000100

Cycle                    7 ----------------------------------------------------

cycle          7
Decode : from Pc                   20 , expanded inst : 70000100000000000000, 
jmp $'h0000000000000100
Exec : ppc                   29

Cycle                    8 ----------------------------------------------------

cycle          8

Cycle                    9 ----------------------------------------------------

cycle          9
Fetch : from Pc                  256 , expanded inst : a05f204530f70f000000, 
push %'h5

Cycle                   10 ----------------------------------------------------

cycle         10
Decode : from Pc                  256 , expanded inst : a05f204530f70f000000, 
push %'h5
Exec : ppc                  258

Cycle                   11 ----------------------------------------------------

cycle         11
Stored                  512 into                  504
Stat update

Cycle                   12 ----------------------------------------------------

cycle         12
On  4, writes                  504	 (wrE)

Cycle                   13 ----------------------------------------------------

cycle         13
Fetch : from Pc                  258 , expanded inst : 204530f70f0000000000, 
rrmovq %'h4, %'h5

Cycle                   14 ----------------------------------------------------

cycle         14
Decode : from Pc                  258 , expanded inst : 204530f70f0000000000, 
rrmovq %'h4, %'h5
Exec : ppc                  260

Cycle                   15 ----------------------------------------------------

cycle         15
On  5, writes                  504	 (wrE)

Cycle                   16 ----------------------------------------------------

cycle         16
Fetch : from Pc                  260 , expanded inst : 30f70f00000000000000, 
irmovq $'h000000000000000f,  %'h7

Cycle                   17 ----------------------------------------------------

cycle         17
Decode : from Pc                  260 , expanded inst : 30f70f00000000000000, 
irmovq $'h000000000000000f,  %'h7
Exec : ppc                  270

Cycle                   18 ----------------------------------------------------

cycle         18
On  7, writes                   15	 (wrE)

Cycle                   19 ----------------------------------------------------

cycle         19
Fetch : from Pc                  270 , expanded inst : 30f64000000000000000, 
irmovq $'h0000000000000040,  %'h6

Cycle                   20 ----------------------------------------------------

cycle         20
Decode : from Pc                  270 , expanded inst : 30f64000000000000000, 
irmovq $'h0000000000000040,  %'h6
Exec : ppc                  280

Cycle                   21 ----------------------------------------------------

cycle         21
On  6, writes                   64	 (wrE)

Cycle                   22 ----------------------------------------------------

cycle         22
Fetch : from Pc                  280 , expanded inst : 80000200000000000030, 
call 'h0000000000000200

Cycle                   23 ----------------------------------------------------

cycle         23
Decode : from Pc                  280 , expanded inst : 80000200000000000030, 
call 'h0000000000000200
Exec : ppc                  289

Cycle                   24 ----------------------------------------------------

cycle         24
Stored                  289 into                  496
Stat update

Cycle                   25 ----------------------------------------------------

cycle         25
On  4, writes                  496	 (wrE)

Cycle                   26 ----------------------------------------------------

cycle         26
Fetch : from Pc                  512 , expanded inst : a05f2045a03fa0cf2070, 
push %'h5

Cycle                   27 ----------------------------------------------------

cycle         27
Decode : from Pc                  512 , expanded inst : a05f2045a03fa0cf2070, 
push %'h5
Exec : ppc                  514

Cycle                   28 ----------------------------------------------------

cycle         28
Stored                  504 into                  488
Stat update

Cycle                   29 ----------------------------------------------------

cycle         29
On  4, writes                  488	 (wrE)

Cycle                   30 ----------------------------------------------------

cycle         30
Fetch : from Pc                  514 , expanded inst : 2045a03fa0cf20706000, 
rrmovq %'h4, %'h5

Cycle                   31 ----------------------------------------------------

cycle         31
Decode : from Pc                  514 , expanded inst : 2045a03fa0cf20706000, 
rrmovq %'h4, %'h5
Exec : ppc                  516

Cycle                   32 ----------------------------------------------------

cycle         32
On  5, writes                  488	 (wrE)

Cycle                   33 ----------------------------------------------------

cycle         33
Fetch : from Pc                  516 , expanded inst : a03fa0cf207060006000, 
push %'h3

Cycle                   34 ----------------------------------------------------

cycle         34
Decode : from Pc                  516 , expanded inst : a03fa0cf207060006000, 
push %'h3
Exec : ppc                  518

Cycle                   35 ----------------------------------------------------

cycle         35
Stored                    0 into                  480
Stat update

Cycle                   36 ----------------------------------------------------

cycle         36
On  4, writes                  480	 (wrE)

Cycle                   37 ----------------------------------------------------

cycle         37
Fetch : from Pc                  518 , expanded inst : a0cf2070600060006000, 
push %'hc

Cycle                   38 ----------------------------------------------------

cycle         38
Decode : from Pc                  518 , expanded inst : a0cf2070600060006000, 
push %'hc
Exec : ppc                  520

Cycle                   39 ----------------------------------------------------

cycle         39
Stored                    0 into                  472
Stat update

Cycle                   40 ----------------------------------------------------

cycle         40
On  4, writes                  472	 (wrE)

Cycle                   41 ----------------------------------------------------

cycle         41
Fetch : from Pc                  520 , expanded inst : 20706000600060006060, 
rrmovq %'h7, %'h0

Cycle                   42 ----------------------------------------------------

cycle         42
Decode : from Pc                  520 , expanded inst : 20706000600060006060, 
rrmovq %'h7, %'h0
Exec : ppc                  522

Cycle                   43 ----------------------------------------------------

cycle         43
On  0, writes                   15	 (wrE)

Cycle                   44 ----------------------------------------------------

cycle         44
Fetch : from Pc                  522 , expanded inst : 60006000600060602003, 
addq %'h0, %'h0

Cycle                   45 ----------------------------------------------------

cycle         45
Decode : from Pc                  522 , expanded inst : 60006000600060602003, 
addq %'h0, %'h0
Exec : ppc                  524

Cycle                   46 ----------------------------------------------------

cycle         46
On  0, writes                   30	 (wrE)

Cycle                   47 ----------------------------------------------------

cycle         47
Fetch : from Pc                  524 , expanded inst : 600060006060200330f1, 
addq %'h0, %'h0

Cycle                   48 ----------------------------------------------------

cycle         48
Decode : from Pc                  524 , expanded inst : 600060006060200330f1, 
addq %'h0, %'h0
Exec : ppc                  526

Cycle                   49 ----------------------------------------------------

cycle         49
On  0, writes                   60	 (wrE)

Cycle                   50 ----------------------------------------------------

cycle         50
Fetch : from Pc                  526 , expanded inst : 60006060200330f10800, 
addq %'h0, %'h0

Cycle                   51 ----------------------------------------------------

cycle         51
Decode : from Pc                  526 , expanded inst : 60006060200330f10800, 
addq %'h0, %'h0
Exec : ppc                  528

Cycle                   52 ----------------------------------------------------

cycle         52
On  0, writes                  120	 (wrE)

Cycle                   53 ----------------------------------------------------

cycle         53
Fetch : from Pc                  528 , expanded inst : 6060200330f108000000, 
addq %'h6, %'h0

Cycle                   54 ----------------------------------------------------

cycle         54
Decode : from Pc                  528 , expanded inst : 6060200330f108000000, 
addq %'h6, %'h0
Exec : ppc                  530

Cycle                   55 ----------------------------------------------------

cycle         55
On  0, writes                  184	 (wrE)

Cycle                   56 ----------------------------------------------------

cycle         56
Fetch : from Pc                  530 , expanded inst : 200330f1080000000000, 
rrmovq %'h0, %'h3

Cycle                   57 ----------------------------------------------------

cycle         57
Decode : from Pc                  530 , expanded inst : 200330f1080000000000, 
rrmovq %'h0, %'h3
Exec : ppc                  532

Cycle                   58 ----------------------------------------------------

cycle         58
On  3, writes                  184	 (wrE)

Cycle                   59 ----------------------------------------------------

cycle         59
Fetch : from Pc                  532 , expanded inst : 30f10800000000000000, 
irmovq $'h0000000000000008,  %'h1

Cycle                   60 ----------------------------------------------------

cycle         60
Decode : from Pc                  532 , expanded inst : 30f10800000000000000, 
irmovq $'h0000000000000008,  %'h1
Exec : ppc                  542

Cycle                   61 ----------------------------------------------------

cycle         61
On  1, writes                    8	 (wrE)

Cycle                   62 ----------------------------------------------------

cycle         62
Fetch : from Pc                  542 , expanded inst : 61132031616171940200, 
subq %'h1, %'h3

Cycle                   63 ----------------------------------------------------

cycle         63
Decode : from Pc                  542 , expanded inst : 61132031616171940200, 
subq %'h1, %'h3
Exec : ppc                  544

Cycle                   64 ----------------------------------------------------

cycle         64
On  3, writes                  176	 (wrE)

Cycle                   65 ----------------------------------------------------

cycle         65
Fetch : from Pc                  544 , expanded inst : 20316161719402000000, 
rrmovq %'h3, %'h1

Cycle                   66 ----------------------------------------------------

cycle         66
Decode : from Pc                  544 , expanded inst : 20316161719402000000, 
rrmovq %'h3, %'h1
Exec : ppc                  546

Cycle                   67 ----------------------------------------------------

cycle         67
On  1, writes                  176	 (wrE)

Cycle                   68 ----------------------------------------------------

cycle         68
Fetch : from Pc                  546 , expanded inst : 61617194020000000000, 
subq %'h6, %'h1

Cycle                   69 ----------------------------------------------------

cycle         69
Decode : from Pc                  546 , expanded inst : 61617194020000000000, 
subq %'h6, %'h1
Exec : ppc                  548

Cycle                   70 ----------------------------------------------------

cycle         70
On  1, writes                  112	 (wrE)

Cycle                   71 ----------------------------------------------------

cycle         71
Fetch : from Pc                  548 , expanded inst : 71940200000000000030, 
jle $'h0000000000000294

Cycle                   72 ----------------------------------------------------

cycle         72
Decode : from Pc                  548 , expanded inst : 71940200000000000030, 
jle $'h0000000000000294
Exec : ppc                  557

Cycle                   73 ----------------------------------------------------

cycle         73

Cycle                   74 ----------------------------------------------------

cycle         74
Fetch : from Pc                  557 , expanded inst : 30f10800000000000000, 
irmovq $'h0000000000000008,  %'h1

Cycle                   75 ----------------------------------------------------

cycle         75
Decode : from Pc                  557 , expanded inst : 30f10800000000000000, 
irmovq $'h0000000000000008,  %'h1
Exec : ppc                  567

Cycle                   76 ----------------------------------------------------

cycle         76
On  1, writes                    8	 (wrE)

Cycle                   77 ----------------------------------------------------

cycle         77
Fetch : from Pc                  567 , expanded inst : 206250a2000000000000, 
rrmovq %'h6, %'h2

Cycle                   78 ----------------------------------------------------

cycle         78
Decode : from Pc                  567 , expanded inst : 206250a2000000000000, 
rrmovq %'h6, %'h2
Exec : ppc                  569

Cycle                   79 ----------------------------------------------------

cycle         79
On  2, writes                   64	 (wrE)

Cycle                   80 ----------------------------------------------------

cycle         80
Fetch : from Pc                  569 , expanded inst : 50a20000000000000000, 
mrmovq 'h0000000000000000(%'h2), %'ha

Cycle                   81 ----------------------------------------------------

cycle         81
Decode : from Pc                  569 , expanded inst : 50a20000000000000000, 
mrmovq 'h0000000000000000(%'h2), %'ha
Exec : ppc                  579

Cycle                   82 ----------------------------------------------------

cycle         82
Loaded                   15 from                   64
Stat update

Cycle                   83 ----------------------------------------------------

cycle         83
On 10, writes                   15	 (wrM)

Cycle                   84 ----------------------------------------------------

cycle         84
Fetch : from Pc                  579 , expanded inst : 50b20800000000000000, 
mrmovq 'h0000000000000008(%'h2), %'hb

Cycle                   85 ----------------------------------------------------

cycle         85
Decode : from Pc                  579 , expanded inst : 50b20800000000000000, 
mrmovq 'h0000000000000008(%'h2), %'hb
Exec : ppc                  589

Cycle                   86 ----------------------------------------------------

cycle         86
Loaded                   14 from                   72
Stat update

Cycle                   87 ----------------------------------------------------

cycle         87
On 11, writes                   14	 (wrM)

Cycle                   88 ----------------------------------------------------

cycle         88
Fetch : from Pc                  589 , expanded inst : 20bc61ac756e02000000, 
rrmovq %'hb, %'hc

Cycle                   89 ----------------------------------------------------

cycle         89
Decode : from Pc                  589 , expanded inst : 20bc61ac756e02000000, 
rrmovq %'hb, %'hc
Exec : ppc                  591

Cycle                   90 ----------------------------------------------------

cycle         90
On 12, writes                   14	 (wrE)

Cycle                   91 ----------------------------------------------------

cycle         91
Fetch : from Pc                  591 , expanded inst : 61ac756e020000000000, 
subq %'ha, %'hc

Cycle                   92 ----------------------------------------------------

cycle         92
Decode : from Pc                  591 , expanded inst : 61ac756e020000000000, 
subq %'ha, %'hc
Exec : ppc                  593

Cycle                   93 ----------------------------------------------------

cycle         93
On 12, writes 18446744073709551615	 (wrE)

Cycle                   94 ----------------------------------------------------

cycle         94
Fetch : from Pc                  593 , expanded inst : 756e0200000000000040, 
jge $'h000000000000026e

Cycle                   95 ----------------------------------------------------

cycle         95
Decode : from Pc                  593 , expanded inst : 756e0200000000000040, 
jge $'h000000000000026e
Exec : ppc                  602

Cycle                   96 ----------------------------------------------------

cycle         96

Cycle                   97 ----------------------------------------------------

cycle         97
Fetch : from Pc                  602 , expanded inst : 40a20800000000000000, 
rmmovq %'ha, 'h0000000000000008(%'h2)

Cycle                   98 ----------------------------------------------------

cycle         98
Decode : from Pc                  602 , expanded inst : 40a20800000000000000, 
rmmovq %'ha, 'h0000000000000008(%'h2)
Exec : ppc                  612

Cycle                   99 ----------------------------------------------------

cycle         99
Stored                   15 into                   72
Stat update

Cycle                  100 ----------------------------------------------------

cycle        100

Cycle                  101 ----------------------------------------------------

cycle        101
Fetch : from Pc                  612 , expanded inst : 40b20000000000000000, 
rmmovq %'hb, 'h0000000000000000(%'h2)

Cycle                  102 ----------------------------------------------------

cycle        102
Decode : from Pc                  612 , expanded inst : 40b20000000000000000, 
rmmovq %'hb, 'h0000000000000000(%'h2)
Exec : ppc                  622

Cycle                  103 ----------------------------------------------------

cycle        103
Stored                   14 into                   64
Stat update

Cycle                  104 ----------------------------------------------------

cycle        104

Cycle                  105 ----------------------------------------------------

cycle        105
Fetch : from Pc                  622 , expanded inst : 6012203a612a76390200, 
addq %'h1, %'h2

Cycle                  106 ----------------------------------------------------

cycle        106
Decode : from Pc                  622 , expanded inst : 6012203a612a76390200, 
addq %'h1, %'h2
Exec : ppc                  624

Cycle                  107 ----------------------------------------------------

cycle        107
On  2, writes                   72	 (wrE)

Cycle                  108 ----------------------------------------------------

cycle        108
Fetch : from Pc                  624 , expanded inst : 203a612a763902000000, 
rrmovq %'h3, %'ha

Cycle                  109 ----------------------------------------------------

cycle        109
Decode : from Pc                  624 , expanded inst : 203a612a763902000000, 
rrmovq %'h3, %'ha
Exec : ppc                  626

Cycle                  110 ----------------------------------------------------

cycle        110
On 10, writes                  176	 (wrE)

Cycle                  111 ----------------------------------------------------

cycle        111
Fetch : from Pc                  626 , expanded inst : 612a7639020000000000, 
subq %'h2, %'ha

Cycle                  112 ----------------------------------------------------

cycle        112
Decode : from Pc                  626 , expanded inst : 612a7639020000000000, 
subq %'h2, %'ha
Exec : ppc                  628

Cycle                  113 ----------------------------------------------------

cycle        113
On 10, writes                  104	 (wrE)

Cycle                  114 ----------------------------------------------------

cycle        114
Fetch : from Pc                  628 , expanded inst : 76390200000000000061, 
jg $'h0000000000000239

Cycle                  115 ----------------------------------------------------

cycle        115
Decode : from Pc                  628 , expanded inst : 76390200000000000061, 
jg $'h0000000000000239
Exec : ppc                  637

Cycle                  116 ----------------------------------------------------

cycle        116

Cycle                  117 ----------------------------------------------------

cycle        117
Fetch : from Pc                  569 , expanded inst : 50a20000000000000000, 
mrmovq 'h0000000000000000(%'h2), %'ha

Cycle                  118 ----------------------------------------------------

cycle        118
Decode : from Pc                  569 , expanded inst : 50a20000000000000000, 
mrmovq 'h0000000000000000(%'h2), %'ha
Exec : ppc                  579

Cycle                  119 ----------------------------------------------------

cycle        119
Loaded                   15 from                   72
Stat update

Cycle                  120 ----------------------------------------------------

cycle        120
On 10, writes                   15	 (wrM)

Cycle                  121 ----------------------------------------------------

cycle        121
Fetch : from Pc                  579 , expanded inst : 50b20800000000000000, 
mrmovq 'h0000000000000008(%'h2), %'hb

Cycle                  122 ----------------------------------------------------

cycle        122
Decode : from Pc                  579 , expanded inst : 50b20800000000000000, 
mrmovq 'h0000000000000008(%'h2), %'hb
Exec : ppc                  589

Cycle                  123 ----------------------------------------------------

cycle        123
Loaded                   13 from                   80
Stat update

Cycle                  124 ----------------------------------------------------

cycle        124
On 11, writes                   13	 (wrM)

Cycle                  125 ----------------------------------------------------

cycle        125
Fetch : from Pc                  589 , expanded inst : 20bc61ac756e02000000, 
rrmovq %'hb, %'hc

Cycle                  126 ----------------------------------------------------

cycle        126
Decode : from Pc                  589 , expanded inst : 20bc61ac756e02000000, 
rrmovq %'hb, %'hc
Exec : ppc                  591

Cycle                  127 ----------------------------------------------------

cycle        127
On 12, writes                   13	 (wrE)

Cycle                  128 ----------------------------------------------------

cycle        128
Fetch : from Pc                  591 , expanded inst : 61ac756e020000000000, 
subq %'ha, %'hc

Cycle                  129 ----------------------------------------------------

cycle        129
Decode : from Pc                  591 , expanded inst : 61ac756e020000000000, 
subq %'ha, %'hc
Exec : ppc                  593

Cycle                  130 ----------------------------------------------------

cycle        130
On 12, writes 18446744073709551614	 (wrE)

Cycle                  131 ----------------------------------------------------

cycle        131
Fetch : from Pc                  593 , expanded inst : 756e0200000000000040, 
jge $'h000000000000026e

Cycle                  132 ----------------------------------------------------

cycle        132
Decode : from Pc                  593 , expanded inst : 756e0200000000000040, 
jge $'h000000000000026e
Exec : ppc                  602

Cycle                  133 ----------------------------------------------------

cycle        133

Cycle                  134 ----------------------------------------------------

cycle        134
Fetch : from Pc                  602 , expanded inst : 40a20800000000000000, 
rmmovq %'ha, 'h0000000000000008(%'h2)

Cycle                  135 ----------------------------------------------------

cycle        135
Decode : from Pc                  602 , expanded inst : 40a20800000000000000, 
rmmovq %'ha, 'h0000000000000008(%'h2)
Exec : ppc                  612

Cycle                  136 ----------------------------------------------------

cycle        136
Stored                   15 into                   80
Stat update

Cycle                  137 ----------------------------------------------------

cycle        137

Cycle                  138 ----------------------------------------------------

cycle        138
Fetch : from Pc                  612 , expanded inst : 40b20000000000000000, 
rmmovq %'hb, 'h0000000000000000(%'h2)

Cycle                  139 ----------------------------------------------------

cycle        139
Decode : from Pc                  612 , expanded inst : 40b20000000000000000, 
rmmovq %'hb, 'h0000000000000000(%'h2)
Exec : ppc                  622

Cycle                  140 ----------------------------------------------------

cycle        140
Stored                   13 into                   72
Stat update

Cycle                  141 ----------------------------------------------------

cycle        141

Cycle                  142 ----------------------------------------------------

cycle        142
Fetch : from Pc                  622 , expanded inst : 6012203a612a76390200, 
addq %'h1, %'h2

Cycle                  143 ----------------------------------------------------

cycle        143
Decode : from Pc                  622 , expanded inst : 6012203a612a76390200, 
addq %'h1, %'h2
Exec : ppc                  624

Cycle                  144 ----------------------------------------------------

cycle        144
On  2, writes                   80	 (wrE)

Cycle                  145 ----------------------------------------------------

cycle        145
Fetch : from Pc                  624 , expanded inst : 203a612a763902000000, 
rrmovq %'h3, %'ha

Cycle                  146 ----------------------------------------------------

cycle        146
Decode : from Pc                  624 , expanded inst : 203a612a763902000000, 
rrmovq %'h3, %'ha
Exec : ppc                  626

Cycle                  147 ----------------------------------------------------

cycle        147
On 10, writes                  176	 (wrE)

Cycle                  148 ----------------------------------------------------

cycle        148
Fetch : from Pc                  626 , expanded inst : 612a7639020000000000, 
subq %'h2, %'ha

Cycle                  149 ----------------------------------------------------

cycle        149
Decode : from Pc                  626 , expanded inst : 612a7639020000000000, 
subq %'h2, %'ha
Exec : ppc                  628

Cycle                  150 ----------------------------------------------------

cycle        150
On 10, writes                   96	 (wrE)

Cycle                  151 ----------------------------------------------------

cycle        151
Fetch : from Pc                  628 , expanded inst : 76390200000000000061, 
jg $'h0000000000000239

Cycle                  152 ----------------------------------------------------

cycle        152
Decode : from Pc                  628 , expanded inst : 76390200000000000061, 
jg $'h0000000000000239
Exec : ppc                  637

Cycle                  153 ----------------------------------------------------

cycle        153

Cycle                  154 ----------------------------------------------------

cycle        154
Fetch : from Pc                  569 , expanded inst : 50a20000000000000000, 
mrmovq 'h0000000000000000(%'h2), %'ha

Cycle                  155 ----------------------------------------------------

cycle        155
Decode : from Pc                  569 , expanded inst : 50a20000000000000000, 
mrmovq 'h0000000000000000(%'h2), %'ha
Exec : ppc                  579

Cycle                  156 ----------------------------------------------------

cycle        156
Loaded                   15 from                   80
Stat update

Cycle                  157 ----------------------------------------------------

cycle        157
On 10, writes                   15	 (wrM)

Cycle                  158 ----------------------------------------------------

cycle        158
Fetch : from Pc                  579 , expanded inst : 50b20800000000000000, 
mrmovq 'h0000000000000008(%'h2), %'hb

Cycle                  159 ----------------------------------------------------

cycle        159
Decode : from Pc                  579 , expanded inst : 50b20800000000000000, 
mrmovq 'h0000000000000008(%'h2), %'hb
Exec : ppc                  589

Cycle                  160 ----------------------------------------------------

cycle        160
Loaded                   12 from                   88
Stat update

Cycle                  161 ----------------------------------------------------

cycle        161
On 11, writes                   12	 (wrM)

Cycle                  162 ----------------------------------------------------

cycle        162
Fetch : from Pc                  589 , expanded inst : 20bc61ac756e02000000, 
rrmovq %'hb, %'hc

Cycle                  163 ----------------------------------------------------

cycle        163
Decode : from Pc                  589 , expanded inst : 20bc61ac756e02000000, 
rrmovq %'hb, %'hc
Exec : ppc                  591

Cycle                  164 ----------------------------------------------------

cycle        164
On 12, writes                   12	 (wrE)

Cycle                  165 ----------------------------------------------------

cycle        165
Fetch : from Pc                  591 , expanded inst : 61ac756e020000000000, 
subq %'ha, %'hc

Cycle                  166 ----------------------------------------------------

cycle        166
Decode : from Pc                  591 , expanded inst : 61ac756e020000000000, 
subq %'ha, %'hc
Exec : ppc                  593

Cycle                  167 ----------------------------------------------------

cycle        167
On 12, writes 18446744073709551613	 (wrE)

Cycle                  168 ----------------------------------------------------

cycle        168
Fetch : from Pc                  593 , expanded inst : 756e0200000000000040, 
jge $'h000000000000026e

Cycle                  169 ----------------------------------------------------

cycle        169
Decode : from Pc                  593 , expanded inst : 756e0200000000000040, 
jge $'h000000000000026e
Exec : ppc                  602

Cycle                  170 ----------------------------------------------------

cycle        170

Cycle                  171 ----------------------------------------------------

cycle        171
Fetch : from Pc                  602 , expanded inst : 40a20800000000000000, 
rmmovq %'ha, 'h0000000000000008(%'h2)

Cycle                  172 ----------------------------------------------------

cycle        172
Decode : from Pc                  602 , expanded inst : 40a20800000000000000, 
rmmovq %'ha, 'h0000000000000008(%'h2)
Exec : ppc                  612

Cycle                  173 ----------------------------------------------------

cycle        173
Stored                   15 into                   88
Stat update

Cycle                  174 ----------------------------------------------------

cycle        174

Cycle                  175 ----------------------------------------------------

cycle        175
Fetch : from Pc                  612 , expanded inst : 40b20000000000000000, 
rmmovq %'hb, 'h0000000000000000(%'h2)

Cycle                  176 ----------------------------------------------------

cycle        176
Decode : from Pc                  612 , expanded inst : 40b20000000000000000, 
rmmovq %'hb, 'h0000000000000000(%'h2)
Exec : ppc                  622

Cycle                  177 ----------------------------------------------------

cycle        177
Stored                   12 into                   80
Stat update

Cycle                  178 ----------------------------------------------------

cycle        178

Cycle                  179 ----------------------------------------------------

cycle        179
Fetch : from Pc                  622 , expanded inst : 6012203a612a76390200, 
addq %'h1, %'h2

Cycle                  180 ----------------------------------------------------

cycle        180
Decode : from Pc                  622 , expanded inst : 6012203a612a76390200, 
addq %'h1, %'h2
Exec : ppc                  624

Cycle                  181 ----------------------------------------------------

cycle        181
On  2, writes                   88	 (wrE)

Cycle                  182 ----------------------------------------------------

cycle        182
Fetch : from Pc                  624 , expanded inst : 203a612a763902000000, 
rrmovq %'h3, %'ha

Cycle                  183 ----------------------------------------------------

cycle        183
Decode : from Pc                  624 , expanded inst : 203a612a763902000000, 
rrmovq %'h3, %'ha
Exec : ppc                  626

Cycle                  184 ----------------------------------------------------

cycle        184
On 10, writes                  176	 (wrE)

Cycle                  185 ----------------------------------------------------

cycle        185
Fetch : from Pc                  626 , expanded inst : 612a7639020000000000, 
subq %'h2, %'ha

Cycle                  186 ----------------------------------------------------

cycle        186
Decode : from Pc                  626 , expanded inst : 612a7639020000000000, 
subq %'h2, %'ha
Exec : ppc                  628

Cycle                  187 ----------------------------------------------------

cycle        187
On 10, writes                   88	 (wrE)

Cycle                  188 ----------------------------------------------------

cycle        188
Fetch : from Pc                  628 , expanded inst : 76390200000000000061, 
jg $'h0000000000000239

Cycle                  189 ----------------------------------------------------

cycle        189
Decode : from Pc                  628 , expanded inst : 76390200000000000061, 
jg $'h0000000000000239
Exec : ppc                  637

Cycle                  190 ----------------------------------------------------

cycle        190

Cycle                  191 ----------------------------------------------------

cycle        191
Fetch : from Pc                  569 , expanded inst : 50a20000000000000000, 
mrmovq 'h0000000000000000(%'h2), %'ha

Cycle                  192 ----------------------------------------------------

cycle        192
Decode : from Pc                  569 , expanded inst : 50a20000000000000000, 
mrmovq 'h0000000000000000(%'h2), %'ha
Exec : ppc                  579

Cycle                  193 ----------------------------------------------------

cycle        193
Loaded                   15 from                   88
Stat update

Cycle                  194 ----------------------------------------------------

cycle        194
On 10, writes                   15	 (wrM)

Cycle                  195 ----------------------------------------------------

cycle        195
Fetch : from Pc                  579 , expanded inst : 50b20800000000000000, 
mrmovq 'h0000000000000008(%'h2), %'hb

Cycle                  196 ----------------------------------------------------

cycle        196
Decode : from Pc                  579 , expanded inst : 50b20800000000000000, 
mrmovq 'h0000000000000008(%'h2), %'hb
Exec : ppc                  589

Cycle                  197 ----------------------------------------------------

cycle        197
Loaded                   11 from                   96
Stat update

Cycle                  198 ----------------------------------------------------

cycle        198
On 11, writes                   11	 (wrM)

Cycle                  199 ----------------------------------------------------

cycle        199
Fetch : from Pc                  589 , expanded inst : 20bc61ac756e02000000, 
rrmovq %'hb, %'hc

Cycle                  200 ----------------------------------------------------

cycle        200
Decode : from Pc                  589 , expanded inst : 20bc61ac756e02000000, 
rrmovq %'hb, %'hc
Exec : ppc                  591

Cycle                  201 ----------------------------------------------------

cycle        201
On 12, writes                   11	 (wrE)

Cycle                  202 ----------------------------------------------------

cycle        202
Fetch : from Pc                  591 , expanded inst : 61ac756e020000000000, 
subq %'ha, %'hc

Cycle                  203 ----------------------------------------------------

cycle        203
Decode : from Pc                  591 , expanded inst : 61ac756e020000000000, 
subq %'ha, %'hc
Exec : ppc                  593

Cycle                  204 ----------------------------------------------------

cycle        204
On 12, writes 18446744073709551612	 (wrE)

Cycle                  205 ----------------------------------------------------

cycle        205
Fetch : from Pc                  593 , expanded inst : 756e0200000000000040, 
jge $'h000000000000026e

Cycle                  206 ----------------------------------------------------

cycle        206
Decode : from Pc                  593 , expanded inst : 756e0200000000000040, 
jge $'h000000000000026e
Exec : ppc                  602

Cycle                  207 ----------------------------------------------------

cycle        207

Cycle                  208 ----------------------------------------------------

cycle        208
Fetch : from Pc                  602 , expanded inst : 40a20800000000000000, 
rmmovq %'ha, 'h0000000000000008(%'h2)

Cycle                  209 ----------------------------------------------------

cycle        209
Decode : from Pc                  602 , expanded inst : 40a20800000000000000, 
rmmovq %'ha, 'h0000000000000008(%'h2)
Exec : ppc                  612

Cycle                  210 ----------------------------------------------------

cycle        210
Stored                   15 into                   96
Stat update

Cycle                  211 ----------------------------------------------------

cycle        211

Cycle                  212 ----------------------------------------------------

cycle        212
Fetch : from Pc                  612 , expanded inst : 40b20000000000000000, 
rmmovq %'hb, 'h0000000000000000(%'h2)

Cycle                  213 ----------------------------------------------------

cycle        213
Decode : from Pc                  612 , expanded inst : 40b20000000000000000, 
rmmovq %'hb, 'h0000000000000000(%'h2)
Exec : ppc                  622

Cycle                  214 ----------------------------------------------------

cycle        214
Stored                   11 into                   88
Stat update

Cycle                  215 ----------------------------------------------------

cycle        215

Cycle                  216 ----------------------------------------------------

cycle        216
Fetch : from Pc                  622 , expanded inst : 6012203a612a76390200, 
addq %'h1, %'h2

Cycle                  217 ----------------------------------------------------

cycle        217
Decode : from Pc                  622 , expanded inst : 6012203a612a76390200, 
addq %'h1, %'h2
Exec : ppc                  624

Cycle                  218 ----------------------------------------------------

cycle        218
On  2, writes                   96	 (wrE)

Cycle                  219 ----------------------------------------------------

cycle        219
Fetch : from Pc                  624 , expanded inst : 203a612a763902000000, 
rrmovq %'h3, %'ha

Cycle                  220 ----------------------------------------------------

cycle        220
Decode : from Pc                  624 , expanded inst : 203a612a763902000000, 
rrmovq %'h3, %'ha
Exec : ppc                  626

Cycle                  221 ----------------------------------------------------

cycle        221
On 10, writes                  176	 (wrE)

Cycle                  222 ----------------------------------------------------

cycle        222
Fetch : from Pc                  626 , expanded inst : 612a7639020000000000, 
subq %'h2, %'ha

Cycle                  223 ----------------------------------------------------

cycle        223
Decode : from Pc                  626 , expanded inst : 612a7639020000000000, 
subq %'h2, %'ha
Exec : ppc                  628

Cycle                  224 ----------------------------------------------------

cycle        224
On 10, writes                   80	 (wrE)

Cycle                  225 ----------------------------------------------------

cycle        225
Fetch : from Pc                  628 , expanded inst : 76390200000000000061, 
jg $'h0000000000000239

Cycle                  226 ----------------------------------------------------

cycle        226
Decode : from Pc                  628 , expanded inst : 76390200000000000061, 
jg $'h0000000000000239
Exec : ppc                  637

Cycle                  227 ----------------------------------------------------

cycle        227

Cycle                  228 ----------------------------------------------------

cycle        228
Fetch : from Pc                  569 , expanded inst : 50a20000000000000000, 
mrmovq 'h0000000000000000(%'h2), %'ha

Cycle                  229 ----------------------------------------------------

cycle        229
Decode : from Pc                  569 , expanded inst : 50a20000000000000000, 
mrmovq 'h0000000000000000(%'h2), %'ha
Exec : ppc                  579

Cycle                  230 ----------------------------------------------------

cycle        230
Loaded                   15 from                   96
Stat update

Cycle                  231 ----------------------------------------------------

cycle        231
On 10, writes                   15	 (wrM)

Cycle                  232 ----------------------------------------------------

cycle        232
Fetch : from Pc                  579 , expanded inst : 50b20800000000000000, 
mrmovq 'h0000000000000008(%'h2), %'hb

Cycle                  233 ----------------------------------------------------

cycle        233
Decode : from Pc                  579 , expanded inst : 50b20800000000000000, 
mrmovq 'h0000000000000008(%'h2), %'hb
Exec : ppc                  589

Cycle                  234 ----------------------------------------------------

cycle        234
Loaded                   10 from                  104
Stat update

Cycle                  235 ----------------------------------------------------

cycle        235
On 11, writes                   10	 (wrM)

Cycle                  236 ----------------------------------------------------

cycle        236
Fetch : from Pc                  589 , expanded inst : 20bc61ac756e02000000, 
rrmovq %'hb, %'hc

Cycle                  237 ----------------------------------------------------

cycle        237
Decode : from Pc                  589 , expanded inst : 20bc61ac756e02000000, 
rrmovq %'hb, %'hc
Exec : ppc                  591

Cycle                  238 ----------------------------------------------------

cycle        238
On 12, writes                   10	 (wrE)

Cycle                  239 ----------------------------------------------------

cycle        239
Fetch : from Pc                  591 , expanded inst : 61ac756e020000000000, 
subq %'ha, %'hc

Cycle                  240 ----------------------------------------------------

cycle        240
Decode : from Pc                  591 , expanded inst : 61ac756e020000000000, 
subq %'ha, %'hc
Exec : ppc                  593

Cycle                  241 ----------------------------------------------------

cycle        241
On 12, writes 18446744073709551611	 (wrE)

Cycle                  242 ----------------------------------------------------

cycle        242
Fetch : from Pc                  593 , expanded inst : 756e0200000000000040, 
jge $'h000000000000026e

Cycle                  243 ----------------------------------------------------

cycle        243
Decode : from Pc                  593 , expanded inst : 756e0200000000000040, 
jge $'h000000000000026e
Exec : ppc                  602

Cycle                  244 ----------------------------------------------------

cycle        244

Cycle                  245 ----------------------------------------------------

cycle        245
Fetch : from Pc                  602 , expanded inst : 40a20800000000000000, 
rmmovq %'ha, 'h0000000000000008(%'h2)

Cycle                  246 ----------------------------------------------------

cycle        246
Decode : from Pc                  602 , expanded inst : 40a20800000000000000, 
rmmovq %'ha, 'h0000000000000008(%'h2)
Exec : ppc                  612

Cycle                  247 ----------------------------------------------------

cycle        247
Stored                   15 into                  104
Stat update

Cycle                  248 ----------------------------------------------------

cycle        248

Cycle                  249 ----------------------------------------------------

cycle        249
Fetch : from Pc                  612 , expanded inst : 40b20000000000000000, 
rmmovq %'hb, 'h0000000000000000(%'h2)

Cycle                  250 ----------------------------------------------------

cycle        250
Decode : from Pc                  612 , expanded inst : 40b20000000000000000, 
rmmovq %'hb, 'h0000000000000000(%'h2)
Exec : ppc                  622

Cycle                  251 ----------------------------------------------------

cycle        251
Stored                   10 into                   96
Stat update

Cycle                  252 ----------------------------------------------------

cycle        252

Cycle                  253 ----------------------------------------------------

cycle        253
Fetch : from Pc                  622 , expanded inst : 6012203a612a76390200, 
addq %'h1, %'h2

Cycle                  254 ----------------------------------------------------

cycle        254
Decode : from Pc                  622 , expanded inst : 6012203a612a76390200, 
addq %'h1, %'h2
Exec : ppc                  624

Cycle                  255 ----------------------------------------------------

cycle        255
On  2, writes                  104	 (wrE)

Cycle                  256 ----------------------------------------------------

cycle        256
Fetch : from Pc                  624 , expanded inst : 203a612a763902000000, 
rrmovq %'h3, %'ha

Cycle                  257 ----------------------------------------------------

cycle        257
Decode : from Pc                  624 , expanded inst : 203a612a763902000000, 
rrmovq %'h3, %'ha
Exec : ppc                  626

Cycle                  258 ----------------------------------------------------

cycle        258
On 10, writes                  176	 (wrE)

Cycle                  259 ----------------------------------------------------

cycle        259
Fetch : from Pc                  626 , expanded inst : 612a7639020000000000, 
subq %'h2, %'ha

Cycle                  260 ----------------------------------------------------

cycle        260
Decode : from Pc                  626 , expanded inst : 612a7639020000000000, 
subq %'h2, %'ha
Exec : ppc                  628

Cycle                  261 ----------------------------------------------------

cycle        261
On 10, writes                   72	 (wrE)

Cycle                  262 ----------------------------------------------------

cycle        262
Fetch : from Pc                  628 , expanded inst : 76390200000000000061, 
jg $'h0000000000000239

Cycle                  263 ----------------------------------------------------

cycle        263
Decode : from Pc                  628 , expanded inst : 76390200000000000061, 
jg $'h0000000000000239
Exec : ppc                  637

Cycle                  264 ----------------------------------------------------

cycle        264

Cycle                  265 ----------------------------------------------------

cycle        265
Fetch : from Pc                  569 , expanded inst : 50a20000000000000000, 
mrmovq 'h0000000000000000(%'h2), %'ha

Cycle                  266 ----------------------------------------------------

cycle        266
Decode : from Pc                  569 , expanded inst : 50a20000000000000000, 
mrmovq 'h0000000000000000(%'h2), %'ha
Exec : ppc                  579

Cycle                  267 ----------------------------------------------------

cycle        267
Loaded                   15 from                  104
Stat update

Cycle                  268 ----------------------------------------------------

cycle        268
On 10, writes                   15	 (wrM)

Cycle                  269 ----------------------------------------------------

cycle        269
Fetch : from Pc                  579 , expanded inst : 50b20800000000000000, 
mrmovq 'h0000000000000008(%'h2), %'hb

Cycle                  270 ----------------------------------------------------

cycle        270
Decode : from Pc                  579 , expanded inst : 50b20800000000000000, 
mrmovq 'h0000000000000008(%'h2), %'hb
Exec : ppc                  589

Cycle                  271 ----------------------------------------------------

cycle        271
Loaded                    9 from                  112
Stat update

Cycle                  272 ----------------------------------------------------

cycle        272
On 11, writes                    9	 (wrM)

Cycle                  273 ----------------------------------------------------

cycle        273
Fetch : from Pc                  589 , expanded inst : 20bc61ac756e02000000, 
rrmovq %'hb, %'hc

Cycle                  274 ----------------------------------------------------

cycle        274
Decode : from Pc                  589 , expanded inst : 20bc61ac756e02000000, 
rrmovq %'hb, %'hc
Exec : ppc                  591

Cycle                  275 ----------------------------------------------------

cycle        275
On 12, writes                    9	 (wrE)

Cycle                  276 ----------------------------------------------------

cycle        276
Fetch : from Pc                  591 , expanded inst : 61ac756e020000000000, 
subq %'ha, %'hc

Cycle                  277 ----------------------------------------------------

cycle        277
Decode : from Pc                  591 , expanded inst : 61ac756e020000000000, 
subq %'ha, %'hc
Exec : ppc                  593

Cycle                  278 ----------------------------------------------------

cycle        278
On 12, writes 18446744073709551610	 (wrE)

Cycle                  279 ----------------------------------------------------

cycle        279
Fetch : from Pc                  593 , expanded inst : 756e0200000000000040, 
jge $'h000000000000026e

Cycle                  280 ----------------------------------------------------

cycle        280
Decode : from Pc                  593 , expanded inst : 756e0200000000000040, 
jge $'h000000000000026e
Exec : ppc                  602

Cycle                  281 ----------------------------------------------------

cycle        281

Cycle                  282 ----------------------------------------------------

cycle        282
Fetch : from Pc                  602 , expanded inst : 40a20800000000000000, 
rmmovq %'ha, 'h0000000000000008(%'h2)

Cycle                  283 ----------------------------------------------------

cycle        283
Decode : from Pc                  602 , expanded inst : 40a20800000000000000, 
rmmovq %'ha, 'h0000000000000008(%'h2)
Exec : ppc                  612

Cycle                  284 ----------------------------------------------------

cycle        284
Stored                   15 into                  112
Stat update

Cycle                  285 ----------------------------------------------------

cycle        285

Cycle                  286 ----------------------------------------------------

cycle        286
Fetch : from Pc                  612 , expanded inst : 40b20000000000000000, 
rmmovq %'hb, 'h0000000000000000(%'h2)

Cycle                  287 ----------------------------------------------------

cycle        287
Decode : from Pc                  612 , expanded inst : 40b20000000000000000, 
rmmovq %'hb, 'h0000000000000000(%'h2)
Exec : ppc                  622

Cycle                  288 ----------------------------------------------------

cycle        288
Stored                    9 into                  104
Stat update

Cycle                  289 ----------------------------------------------------

cycle        289

Cycle                  290 ----------------------------------------------------

cycle        290
Fetch : from Pc                  622 , expanded inst : 6012203a612a76390200, 
addq %'h1, %'h2

Cycle                  291 ----------------------------------------------------

cycle        291
Decode : from Pc                  622 , expanded inst : 6012203a612a76390200, 
addq %'h1, %'h2
Exec : ppc                  624

Cycle                  292 ----------------------------------------------------

cycle        292
On  2, writes                  112	 (wrE)

Cycle                  293 ----------------------------------------------------

cycle        293
Fetch : from Pc                  624 , expanded inst : 203a612a763902000000, 
rrmovq %'h3, %'ha

Cycle                  294 ----------------------------------------------------

cycle        294
Decode : from Pc                  624 , expanded inst : 203a612a763902000000, 
rrmovq %'h3, %'ha
Exec : ppc                  626

Cycle                  295 ----------------------------------------------------

cycle        295
On 10, writes                  176	 (wrE)

Cycle                  296 ----------------------------------------------------

cycle        296
Fetch : from Pc                  626 , expanded inst : 612a7639020000000000, 
subq %'h2, %'ha

Cycle                  297 ----------------------------------------------------

cycle        297
Decode : from Pc                  626 , expanded inst : 612a7639020000000000, 
subq %'h2, %'ha
Exec : ppc                  628

Cycle                  298 ----------------------------------------------------

cycle        298
On 10, writes                   64	 (wrE)

Cycle                  299 ----------------------------------------------------

cycle        299
Fetch : from Pc                  628 , expanded inst : 76390200000000000061, 
jg $'h0000000000000239

Cycle                  300 ----------------------------------------------------

cycle        300
Decode : from Pc                  628 , expanded inst : 76390200000000000061, 
jg $'h0000000000000239
Exec : ppc                  637

Cycle                  301 ----------------------------------------------------

cycle        301

Cycle                  302 ----------------------------------------------------

cycle        302
Fetch : from Pc                  569 , expanded inst : 50a20000000000000000, 
mrmovq 'h0000000000000000(%'h2), %'ha

Cycle                  303 ----------------------------------------------------

cycle        303
Decode : from Pc                  569 , expanded inst : 50a20000000000000000, 
mrmovq 'h0000000000000000(%'h2), %'ha
Exec : ppc                  579

Cycle                  304 ----------------------------------------------------

cycle        304
Loaded                   15 from                  112
Stat update

Cycle                  305 ----------------------------------------------------

cycle        305
On 10, writes                   15	 (wrM)

Cycle                  306 ----------------------------------------------------

cycle        306
Fetch : from Pc                  579 , expanded inst : 50b20800000000000000, 
mrmovq 'h0000000000000008(%'h2), %'hb

Cycle                  307 ----------------------------------------------------

cycle        307
Decode : from Pc                  579 , expanded inst : 50b20800000000000000, 
mrmovq 'h0000000000000008(%'h2), %'hb
Exec : ppc                  589

Cycle                  308 ----------------------------------------------------

cycle        308
Loaded                    8 from                  120
Stat update

Cycle                  309 ----------------------------------------------------

cycle        309
On 11, writes                    8	 (wrM)

Cycle                  310 ----------------------------------------------------

cycle        310
Fetch : from Pc                  589 , expanded inst : 20bc61ac756e02000000, 
rrmovq %'hb, %'hc

Cycle                  311 ----------------------------------------------------

cycle        311
Decode : from Pc                  589 , expanded inst : 20bc61ac756e02000000, 
rrmovq %'hb, %'hc
Exec : ppc                  591

Cycle                  312 ----------------------------------------------------

cycle        312
On 12, writes                    8	 (wrE)

Cycle                  313 ----------------------------------------------------

cycle        313
Fetch : from Pc                  591 , expanded inst : 61ac756e020000000000, 
subq %'ha, %'hc

Cycle                  314 ----------------------------------------------------

cycle        314
Decode : from Pc                  591 , expanded inst : 61ac756e020000000000, 
subq %'ha, %'hc
Exec : ppc                  593

Cycle                  315 ----------------------------------------------------

cycle        315
On 12, writes 18446744073709551609	 (wrE)

Cycle                  316 ----------------------------------------------------

cycle        316
Fetch : from Pc                  593 , expanded inst : 756e0200000000000040, 
jge $'h000000000000026e

Cycle                  317 ----------------------------------------------------

cycle        317
Decode : from Pc                  593 , expanded inst : 756e0200000000000040, 
jge $'h000000000000026e
Exec : ppc                  602

Cycle                  318 ----------------------------------------------------

cycle        318

Cycle                  319 ----------------------------------------------------

cycle        319
Fetch : from Pc                  602 , expanded inst : 40a20800000000000000, 
rmmovq %'ha, 'h0000000000000008(%'h2)

Cycle                  320 ----------------------------------------------------

cycle        320
Decode : from Pc                  602 , expanded inst : 40a20800000000000000, 
rmmovq %'ha, 'h0000000000000008(%'h2)
Exec : ppc                  612

Cycle                  321 ----------------------------------------------------

cycle        321
Stored                   15 into                  120
Stat update

Cycle                  322 ----------------------------------------------------

cycle        322

Cycle                  323 ----------------------------------------------------

cycle        323
Fetch : from Pc                  612 , expanded inst : 40b20000000000000000, 
rmmovq %'hb, 'h0000000000000000(%'h2)

Cycle                  324 ----------------------------------------------------

cycle        324
Decode : from Pc                  612 , expanded inst : 40b20000000000000000, 
rmmovq %'hb, 'h0000000000000000(%'h2)
Exec : ppc                  622

Cycle                  325 ----------------------------------------------------

cycle        325
Stored                    8 into                  112
Stat update

Cycle                  326 ----------------------------------------------------

cycle        326

Cycle                  327 ----------------------------------------------------

cycle        327
Fetch : from Pc                  622 , expanded inst : 6012203a612a76390200, 
addq %'h1, %'h2

Cycle                  328 ----------------------------------------------------

cycle        328
Decode : from Pc                  622 , expanded inst : 6012203a612a76390200, 
addq %'h1, %'h2
Exec : ppc                  624

Cycle                  329 ----------------------------------------------------

cycle        329
On  2, writes                  120	 (wrE)

Cycle                  330 ----------------------------------------------------

cycle        330
Fetch : from Pc                  624 , expanded inst : 203a612a763902000000, 
rrmovq %'h3, %'ha

Cycle                  331 ----------------------------------------------------

cycle        331
Decode : from Pc                  624 , expanded inst : 203a612a763902000000, 
rrmovq %'h3, %'ha
Exec : ppc                  626

Cycle                  332 ----------------------------------------------------

cycle        332
On 10, writes                  176	 (wrE)

Cycle                  333 ----------------------------------------------------

cycle        333
Fetch : from Pc                  626 , expanded inst : 612a7639020000000000, 
subq %'h2, %'ha

Cycle                  334 ----------------------------------------------------

cycle        334
Decode : from Pc                  626 , expanded inst : 612a7639020000000000, 
subq %'h2, %'ha
Exec : ppc                  628

Cycle                  335 ----------------------------------------------------

cycle        335
On 10, writes                   56	 (wrE)

Cycle                  336 ----------------------------------------------------

cycle        336
Fetch : from Pc                  628 , expanded inst : 76390200000000000061, 
jg $'h0000000000000239

Cycle                  337 ----------------------------------------------------

cycle        337
Decode : from Pc                  628 , expanded inst : 76390200000000000061, 
jg $'h0000000000000239
Exec : ppc                  637

Cycle                  338 ----------------------------------------------------

cycle        338

Cycle                  339 ----------------------------------------------------

cycle        339
Fetch : from Pc                  569 , expanded inst : 50a20000000000000000, 
mrmovq 'h0000000000000000(%'h2), %'ha

Cycle                  340 ----------------------------------------------------

cycle        340
Decode : from Pc                  569 , expanded inst : 50a20000000000000000, 
mrmovq 'h0000000000000000(%'h2), %'ha
Exec : ppc                  579

Cycle                  341 ----------------------------------------------------

cycle        341
Loaded                   15 from                  120
Stat update

Cycle                  342 ----------------------------------------------------

cycle        342
On 10, writes                   15	 (wrM)

Cycle                  343 ----------------------------------------------------

cycle        343
Fetch : from Pc                  579 , expanded inst : 50b20800000000000000, 
mrmovq 'h0000000000000008(%'h2), %'hb

Cycle                  344 ----------------------------------------------------

cycle        344
Decode : from Pc                  579 , expanded inst : 50b20800000000000000, 
mrmovq 'h0000000000000008(%'h2), %'hb
Exec : ppc                  589

Cycle                  345 ----------------------------------------------------

cycle        345
Loaded                    7 from                  128
Stat update

Cycle                  346 ----------------------------------------------------

cycle        346
On 11, writes                    7	 (wrM)

Cycle                  347 ----------------------------------------------------

cycle        347
Fetch : from Pc                  589 , expanded inst : 20bc61ac756e02000000, 
rrmovq %'hb, %'hc

Cycle                  348 ----------------------------------------------------

cycle        348
Decode : from Pc                  589 , expanded inst : 20bc61ac756e02000000, 
rrmovq %'hb, %'hc
Exec : ppc                  591

Cycle                  349 ----------------------------------------------------

cycle        349
On 12, writes                    7	 (wrE)

Cycle                  350 ----------------------------------------------------

cycle        350
Fetch : from Pc                  591 , expanded inst : 61ac756e020000000000, 
subq %'ha, %'hc

Cycle                  351 ----------------------------------------------------

cycle        351
Decode : from Pc                  591 , expanded inst : 61ac756e020000000000, 
subq %'ha, %'hc
Exec : ppc                  593

Cycle                  352 ----------------------------------------------------

cycle        352
On 12, writes 18446744073709551608	 (wrE)

Cycle                  353 ----------------------------------------------------

cycle        353
Fetch : from Pc                  593 , expanded inst : 756e0200000000000040, 
jge $'h000000000000026e

Cycle                  354 ----------------------------------------------------

cycle        354
Decode : from Pc                  593 , expanded inst : 756e0200000000000040, 
jge $'h000000000000026e
Exec : ppc                  602

Cycle                  355 ----------------------------------------------------

cycle        355

Cycle                  356 ----------------------------------------------------

cycle        356
Fetch : from Pc                  602 , expanded inst : 40a20800000000000000, 
rmmovq %'ha, 'h0000000000000008(%'h2)

Cycle                  357 ----------------------------------------------------

cycle        357
Decode : from Pc                  602 , expanded inst : 40a20800000000000000, 
rmmovq %'ha, 'h0000000000000008(%'h2)
Exec : ppc                  612

Cycle                  358 ----------------------------------------------------

cycle        358
Stored                   15 into                  128
Stat update

Cycle                  359 ----------------------------------------------------

cycle        359

Cycle                  360 ----------------------------------------------------

cycle        360
Fetch : from Pc                  612 , expanded inst : 40b20000000000000000, 
rmmovq %'hb, 'h0000000000000000(%'h2)

Cycle                  361 ----------------------------------------------------

cycle        361
Decode : from Pc                  612 , expanded inst : 40b20000000000000000, 
rmmovq %'hb, 'h0000000000000000(%'h2)
Exec : ppc                  622

Cycle                  362 ----------------------------------------------------

cycle        362
Stored                    7 into                  120
Stat update

Cycle                  363 ----------------------------------------------------

cycle        363

Cycle                  364 ----------------------------------------------------

cycle        364
Fetch : from Pc                  622 , expanded inst : 6012203a612a76390200, 
addq %'h1, %'h2

Cycle                  365 ----------------------------------------------------

cycle        365
Decode : from Pc                  622 , expanded inst : 6012203a612a76390200, 
addq %'h1, %'h2
Exec : ppc                  624

Cycle                  366 ----------------------------------------------------

cycle        366
On  2, writes                  128	 (wrE)

Cycle                  367 ----------------------------------------------------

cycle        367
Fetch : from Pc                  624 , expanded inst : 203a612a763902000000, 
rrmovq %'h3, %'ha

Cycle                  368 ----------------------------------------------------

cycle        368
Decode : from Pc                  624 , expanded inst : 203a612a763902000000, 
rrmovq %'h3, %'ha
Exec : ppc                  626

Cycle                  369 ----------------------------------------------------

cycle        369
On 10, writes                  176	 (wrE)

Cycle                  370 ----------------------------------------------------

cycle        370
Fetch : from Pc                  626 , expanded inst : 612a7639020000000000, 
subq %'h2, %'ha

Cycle                  371 ----------------------------------------------------

cycle        371
Decode : from Pc                  626 , expanded inst : 612a7639020000000000, 
subq %'h2, %'ha
Exec : ppc                  628

Cycle                  372 ----------------------------------------------------

cycle        372
On 10, writes                   48	 (wrE)

Cycle                  373 ----------------------------------------------------

cycle        373
Fetch : from Pc                  628 , expanded inst : 76390200000000000061, 
jg $'h0000000000000239

Cycle                  374 ----------------------------------------------------

cycle        374
Decode : from Pc                  628 , expanded inst : 76390200000000000061, 
jg $'h0000000000000239
Exec : ppc                  637

Cycle                  375 ----------------------------------------------------

cycle        375

Cycle                  376 ----------------------------------------------------

cycle        376
Fetch : from Pc                  569 , expanded inst : 50a20000000000000000, 
mrmovq 'h0000000000000000(%'h2), %'ha

Cycle                  377 ----------------------------------------------------

cycle        377
Decode : from Pc                  569 , expanded inst : 50a20000000000000000, 
mrmovq 'h0000000000000000(%'h2), %'ha
Exec : ppc                  579

Cycle                  378 ----------------------------------------------------

cycle        378
Loaded                   15 from                  128
Stat update

Cycle                  379 ----------------------------------------------------

cycle        379
On 10, writes                   15	 (wrM)

Cycle                  380 ----------------------------------------------------

cycle        380
Fetch : from Pc                  579 , expanded inst : 50b20800000000000000, 
mrmovq 'h0000000000000008(%'h2), %'hb

Cycle                  381 ----------------------------------------------------

cycle        381
Decode : from Pc                  579 , expanded inst : 50b20800000000000000, 
mrmovq 'h0000000000000008(%'h2), %'hb
Exec : ppc                  589

Cycle                  382 ----------------------------------------------------

cycle        382
Loaded                    6 from                  136
Stat update

Cycle                  383 ----------------------------------------------------

cycle        383
On 11, writes                    6	 (wrM)

Cycle                  384 ----------------------------------------------------

cycle        384
Fetch : from Pc                  589 , expanded inst : 20bc61ac756e02000000, 
rrmovq %'hb, %'hc

Cycle                  385 ----------------------------------------------------

cycle        385
Decode : from Pc                  589 , expanded inst : 20bc61ac756e02000000, 
rrmovq %'hb, %'hc
Exec : ppc                  591

Cycle                  386 ----------------------------------------------------

cycle        386
On 12, writes                    6	 (wrE)

Cycle                  387 ----------------------------------------------------

cycle        387
Fetch : from Pc                  591 , expanded inst : 61ac756e020000000000, 
subq %'ha, %'hc

Cycle                  388 ----------------------------------------------------

cycle        388
Decode : from Pc                  591 , expanded inst : 61ac756e020000000000, 
subq %'ha, %'hc
Exec : ppc                  593

Cycle                  389 ----------------------------------------------------

cycle        389
On 12, writes 18446744073709551607	 (wrE)

Cycle                  390 ----------------------------------------------------

cycle        390
Fetch : from Pc                  593 , expanded inst : 756e0200000000000040, 
jge $'h000000000000026e

Cycle                  391 ----------------------------------------------------

cycle        391
Decode : from Pc                  593 , expanded inst : 756e0200000000000040, 
jge $'h000000000000026e
Exec : ppc                  602

Cycle                  392 ----------------------------------------------------

cycle        392

Cycle                  393 ----------------------------------------------------

cycle        393
Fetch : from Pc                  602 , expanded inst : 40a20800000000000000, 
rmmovq %'ha, 'h0000000000000008(%'h2)

Cycle                  394 ----------------------------------------------------

cycle        394
Decode : from Pc                  602 , expanded inst : 40a20800000000000000, 
rmmovq %'ha, 'h0000000000000008(%'h2)
Exec : ppc                  612

Cycle                  395 ----------------------------------------------------

cycle        395
Stored                   15 into                  136
Stat update

Cycle                  396 ----------------------------------------------------

cycle        396

Cycle                  397 ----------------------------------------------------

cycle        397
Fetch : from Pc                  612 , expanded inst : 40b20000000000000000, 
rmmovq %'hb, 'h0000000000000000(%'h2)

Cycle                  398 ----------------------------------------------------

cycle        398
Decode : from Pc                  612 , expanded inst : 40b20000000000000000, 
rmmovq %'hb, 'h0000000000000000(%'h2)
Exec : ppc                  622

Cycle                  399 ----------------------------------------------------

cycle        399
Stored                    6 into                  128
Stat update

Cycle                  400 ----------------------------------------------------

cycle        400

Cycle                  401 ----------------------------------------------------

cycle        401
Fetch : from Pc                  622 , expanded inst : 6012203a612a76390200, 
addq %'h1, %'h2

Cycle                  402 ----------------------------------------------------

cycle        402
Decode : from Pc                  622 , expanded inst : 6012203a612a76390200, 
addq %'h1, %'h2
Exec : ppc                  624

Cycle                  403 ----------------------------------------------------

cycle        403
On  2, writes                  136	 (wrE)

Cycle                  404 ----------------------------------------------------

cycle        404
Fetch : from Pc                  624 , expanded inst : 203a612a763902000000, 
rrmovq %'h3, %'ha

Cycle                  405 ----------------------------------------------------

cycle        405
Decode : from Pc                  624 , expanded inst : 203a612a763902000000, 
rrmovq %'h3, %'ha
Exec : ppc                  626

Cycle                  406 ----------------------------------------------------

cycle        406
On 10, writes                  176	 (wrE)

Cycle                  407 ----------------------------------------------------

cycle        407
Fetch : from Pc                  626 , expanded inst : 612a7639020000000000, 
subq %'h2, %'ha

Cycle                  408 ----------------------------------------------------

cycle        408
Decode : from Pc                  626 , expanded inst : 612a7639020000000000, 
subq %'h2, %'ha
Exec : ppc                  628

Cycle                  409 ----------------------------------------------------

cycle        409
On 10, writes                   40	 (wrE)

Cycle                  410 ----------------------------------------------------

cycle        410
Fetch : from Pc                  628 , expanded inst : 76390200000000000061, 
jg $'h0000000000000239

Cycle                  411 ----------------------------------------------------

cycle        411
Decode : from Pc                  628 , expanded inst : 76390200000000000061, 
jg $'h0000000000000239
Exec : ppc                  637

Cycle                  412 ----------------------------------------------------

cycle        412

Cycle                  413 ----------------------------------------------------

cycle        413
Fetch : from Pc                  569 , expanded inst : 50a20000000000000000, 
mrmovq 'h0000000000000000(%'h2), %'ha

Cycle                  414 ----------------------------------------------------

cycle        414
Decode : from Pc                  569 , expanded inst : 50a20000000000000000, 
mrmovq 'h0000000000000000(%'h2), %'ha
Exec : ppc                  579

Cycle                  415 ----------------------------------------------------

cycle        415
Loaded                   15 from                  136
Stat update

Cycle                  416 ----------------------------------------------------

cycle        416
On 10, writes                   15	 (wrM)

Cycle                  417 ----------------------------------------------------

cycle        417
Fetch : from Pc                  579 , expanded inst : 50b20800000000000000, 
mrmovq 'h0000000000000008(%'h2), %'hb

Cycle                  418 ----------------------------------------------------

cycle        418
Decode : from Pc                  579 , expanded inst : 50b20800000000000000, 
mrmovq 'h0000000000000008(%'h2), %'hb
Exec : ppc                  589

Cycle                  419 ----------------------------------------------------

cycle        419
Loaded                    5 from                  144
Stat update

Cycle                  420 ----------------------------------------------------

cycle        420
On 11, writes                    5	 (wrM)

Cycle                  421 ----------------------------------------------------

cycle        421
Fetch : from Pc                  589 , expanded inst : 20bc61ac756e02000000, 
rrmovq %'hb, %'hc

Cycle                  422 ----------------------------------------------------

cycle        422
Decode : from Pc                  589 , expanded inst : 20bc61ac756e02000000, 
rrmovq %'hb, %'hc
Exec : ppc                  591

Cycle                  423 ----------------------------------------------------

cycle        423
On 12, writes                    5	 (wrE)

Cycle                  424 ----------------------------------------------------

cycle        424
Fetch : from Pc                  591 , expanded inst : 61ac756e020000000000, 
subq %'ha, %'hc

Cycle                  425 ----------------------------------------------------

cycle        425
Decode : from Pc                  591 , expanded inst : 61ac756e020000000000, 
subq %'ha, %'hc
Exec : ppc                  593

[...]

cycle       4632
Fetch : from Pc                  360 , expanded inst : 60ba6103764901000000, 
addq %'hb, %'ha

Cycle                 4633 ----------------------------------------------------

cycle       4633
Decode : from Pc                  360 , expanded inst : 60ba6103764901000000, 
addq %'hb, %'ha
Exec : ppc                  362

Cycle                 4634 ----------------------------------------------------

cycle       4634
On 10, writes                   72	 (wrE)

Cycle                 4635 ----------------------------------------------------

cycle       4635
Fetch : from Pc                  362 , expanded inst : 61037649010000000000, 
subq %'h0, %'h3

Cycle                 4636 ----------------------------------------------------

cycle       4636
Decode : from Pc                  362 , expanded inst : 61037649010000000000, 
subq %'h0, %'h3
Exec : ppc                  364

Cycle                 4637 ----------------------------------------------------

cycle       4637
On  3, writes                    4	 (wrE)

Cycle                 4638 ----------------------------------------------------

cycle       4638
Fetch : from Pc                  364 , expanded inst : 76490100000000000030, 
jg $'h0000000000000149

Cycle                 4639 ----------------------------------------------------

cycle       4639
Decode : from Pc                  364 , expanded inst : 76490100000000000030, 
jg $'h0000000000000149
Exec : ppc                  373

Cycle                 4640 ----------------------------------------------------

cycle       4640

Cycle                 4641 ----------------------------------------------------

cycle       4641
Fetch : from Pc                  329 , expanded inst : 50ca0000000000000000, 
mrmovq 'h0000000000000000(%'ha), %'hc

Cycle                 4642 ----------------------------------------------------

cycle       4642
Decode : from Pc                  329 , expanded inst : 50ca0000000000000000, 
mrmovq 'h0000000000000000(%'ha), %'hc
Exec : ppc                  339

Cycle                 4643 ----------------------------------------------------

cycle       4643
Loaded                    2 from                   72
Stat update

Cycle                 4644 ----------------------------------------------------

cycle       4644
On 12, writes                    2	 (wrM)

Cycle                 4645 ----------------------------------------------------

cycle       4645
Fetch : from Pc                  339 , expanded inst : 50da0800000000000000, 
mrmovq 'h0000000000000008(%'ha), %'hd

Cycle                 4646 ----------------------------------------------------

cycle       4646
Decode : from Pc                  339 , expanded inst : 50da0800000000000000, 
mrmovq 'h0000000000000008(%'ha), %'hd
Exec : ppc                  349

Cycle                 4647 ----------------------------------------------------

cycle       4647
Loaded                    3 from                   80
Stat update

Cycle                 4648 ----------------------------------------------------

cycle       4648
On 13, writes                    3	 (wrM)

Cycle                 4649 ----------------------------------------------------

cycle       4649
Fetch : from Pc                  349 , expanded inst : 61dc767f010000000000, 
subq %'hd, %'hc

Cycle                 4650 ----------------------------------------------------

cycle       4650
Decode : from Pc                  349 , expanded inst : 61dc767f010000000000, 
subq %'hd, %'hc
Exec : ppc                  351

Cycle                 4651 ----------------------------------------------------

cycle       4651
On 12, writes 18446744073709551615	 (wrE)

Cycle                 4652 ----------------------------------------------------

cycle       4652
Fetch : from Pc                  351 , expanded inst : 767f0100000000000060, 
jg $'h000000000000017f

Cycle                 4653 ----------------------------------------------------

cycle       4653
Decode : from Pc                  351 , expanded inst : 767f0100000000000060, 
jg $'h000000000000017f
Exec : ppc                  360

Cycle                 4654 ----------------------------------------------------

cycle       4654

Cycle                 4655 ----------------------------------------------------

cycle       4655
Fetch : from Pc                  360 , expanded inst : 60ba6103764901000000, 
addq %'hb, %'ha

Cycle                 4656 ----------------------------------------------------

cycle       4656
Decode : from Pc                  360 , expanded inst : 60ba6103764901000000, 
addq %'hb, %'ha
Exec : ppc                  362

Cycle                 4657 ----------------------------------------------------

cycle       4657
On 10, writes                   80	 (wrE)

Cycle                 4658 ----------------------------------------------------

cycle       4658
Fetch : from Pc                  362 , expanded inst : 61037649010000000000, 
subq %'h0, %'h3

Cycle                 4659 ----------------------------------------------------

cycle       4659
Decode : from Pc                  362 , expanded inst : 61037649010000000000, 
subq %'h0, %'h3
Exec : ppc                  364

Cycle                 4660 ----------------------------------------------------

cycle       4660
On  3, writes                    3	 (wrE)

Cycle                 4661 ----------------------------------------------------

cycle       4661
Fetch : from Pc                  364 , expanded inst : 76490100000000000030, 
jg $'h0000000000000149

Cycle                 4662 ----------------------------------------------------

cycle       4662
Decode : from Pc                  364 , expanded inst : 76490100000000000030, 
jg $'h0000000000000149
Exec : ppc                  373

Cycle                 4663 ----------------------------------------------------

cycle       4663

Cycle                 4664 ----------------------------------------------------

cycle       4664
Fetch : from Pc                  329 , expanded inst : 50ca0000000000000000, 
mrmovq 'h0000000000000000(%'ha), %'hc

Cycle                 4665 ----------------------------------------------------

cycle       4665
Decode : from Pc                  329 , expanded inst : 50ca0000000000000000, 
mrmovq 'h0000000000000000(%'ha), %'hc
Exec : ppc                  339

Cycle                 4666 ----------------------------------------------------

cycle       4666
Loaded                    3 from                   80
Stat update

Cycle                 4667 ----------------------------------------------------

cycle       4667
On 12, writes                    3	 (wrM)

Cycle                 4668 ----------------------------------------------------

cycle       4668
Fetch : from Pc                  339 , expanded inst : 50da0800000000000000, 
mrmovq 'h0000000000000008(%'ha), %'hd

Cycle                 4669 ----------------------------------------------------

cycle       4669
Decode : from Pc                  339 , expanded inst : 50da0800000000000000, 
mrmovq 'h0000000000000008(%'ha), %'hd
Exec : ppc                  349

Cycle                 4670 ----------------------------------------------------

cycle       4670
Loaded                    4 from                   88
Stat update

Cycle                 4671 ----------------------------------------------------

cycle       4671
On 13, writes                    4	 (wrM)

Cycle                 4672 ----------------------------------------------------

cycle       4672
Fetch : from Pc                  349 , expanded inst : 61dc767f010000000000, 
subq %'hd, %'hc

Cycle                 4673 ----------------------------------------------------

cycle       4673
Decode : from Pc                  349 , expanded inst : 61dc767f010000000000, 
subq %'hd, %'hc
Exec : ppc                  351

Cycle                 4674 ----------------------------------------------------

cycle       4674
On 12, writes 18446744073709551615	 (wrE)

Cycle                 4675 ----------------------------------------------------

cycle       4675
Fetch : from Pc                  351 , expanded inst : 767f0100000000000060, 
jg $'h000000000000017f

Cycle                 4676 ----------------------------------------------------

cycle       4676
Decode : from Pc                  351 , expanded inst : 767f0100000000000060, 
jg $'h000000000000017f
Exec : ppc                  360

Cycle                 4677 ----------------------------------------------------

cycle       4677

Cycle                 4678 ----------------------------------------------------

cycle       4678
Fetch : from Pc                  360 , expanded inst : 60ba6103764901000000, 
addq %'hb, %'ha

Cycle                 4679 ----------------------------------------------------

cycle       4679
Decode : from Pc                  360 , expanded inst : 60ba6103764901000000, 
addq %'hb, %'ha
Exec : ppc                  362

Cycle                 4680 ----------------------------------------------------

cycle       4680
On 10, writes                   88	 (wrE)

Cycle                 4681 ----------------------------------------------------

cycle       4681
Fetch : from Pc                  362 , expanded inst : 61037649010000000000, 
subq %'h0, %'h3

Cycle                 4682 ----------------------------------------------------

cycle       4682
Decode : from Pc                  362 , expanded inst : 61037649010000000000, 
subq %'h0, %'h3
Exec : ppc                  364

Cycle                 4683 ----------------------------------------------------

cycle       4683
On  3, writes                    2	 (wrE)

Cycle                 4684 ----------------------------------------------------

cycle       4684
Fetch : from Pc                  364 , expanded inst : 76490100000000000030, 
jg $'h0000000000000149

Cycle                 4685 ----------------------------------------------------

cycle       4685
Decode : from Pc                  364 , expanded inst : 76490100000000000030, 
jg $'h0000000000000149
Exec : ppc                  373

Cycle                 4686 ----------------------------------------------------

cycle       4686

Cycle                 4687 ----------------------------------------------------

cycle       4687
Fetch : from Pc                  329 , expanded inst : 50ca0000000000000000, 
mrmovq 'h0000000000000000(%'ha), %'hc

Cycle                 4688 ----------------------------------------------------

cycle       4688
Decode : from Pc                  329 , expanded inst : 50ca0000000000000000, 
mrmovq 'h0000000000000000(%'ha), %'hc
Exec : ppc                  339

Cycle                 4689 ----------------------------------------------------

cycle       4689
Loaded                    4 from                   88
Stat update

Cycle                 4690 ----------------------------------------------------

cycle       4690
On 12, writes                    4	 (wrM)

Cycle                 4691 ----------------------------------------------------

cycle       4691
Fetch : from Pc                  339 , expanded inst : 50da0800000000000000, 
mrmovq 'h0000000000000008(%'ha), %'hd

Cycle                 4692 ----------------------------------------------------

cycle       4692
Decode : from Pc                  339 , expanded inst : 50da0800000000000000, 
mrmovq 'h0000000000000008(%'ha), %'hd
Exec : ppc                  349

Cycle                 4693 ----------------------------------------------------

cycle       4693
Loaded                    5 from                   96
Stat update

Cycle                 4694 ----------------------------------------------------

cycle       4694
On 13, writes                    5	 (wrM)

Cycle                 4695 ----------------------------------------------------

cycle       4695
Fetch : from Pc                  349 , expanded inst : 61dc767f010000000000, 
subq %'hd, %'hc

Cycle                 4696 ----------------------------------------------------

cycle       4696
Decode : from Pc                  349 , expanded inst : 61dc767f010000000000, 
subq %'hd, %'hc
Exec : ppc                  351

Cycle                 4697 ----------------------------------------------------

cycle       4697
On 12, writes 18446744073709551615	 (wrE)

Cycle                 4698 ----------------------------------------------------

cycle       4698
Fetch : from Pc                  351 , expanded inst : 767f0100000000000060, 
jg $'h000000000000017f

Cycle                 4699 ----------------------------------------------------

cycle       4699
Decode : from Pc                  351 , expanded inst : 767f0100000000000060, 
jg $'h000000000000017f
Exec : ppc                  360

Cycle                 4700 ----------------------------------------------------

cycle       4700

Cycle                 4701 ----------------------------------------------------

cycle       4701
Fetch : from Pc                  360 , expanded inst : 60ba6103764901000000, 
addq %'hb, %'ha

Cycle                 4702 ----------------------------------------------------

cycle       4702
Decode : from Pc                  360 , expanded inst : 60ba6103764901000000, 
addq %'hb, %'ha
Exec : ppc                  362

Cycle                 4703 ----------------------------------------------------

cycle       4703
On 10, writes                   96	 (wrE)

Cycle                 4704 ----------------------------------------------------

cycle       4704
Fetch : from Pc                  362 , expanded inst : 61037649010000000000, 
subq %'h0, %'h3

Cycle                 4705 ----------------------------------------------------

cycle       4705
Decode : from Pc                  362 , expanded inst : 61037649010000000000, 
subq %'h0, %'h3
Exec : ppc                  364

Cycle                 4706 ----------------------------------------------------

cycle       4706
On  3, writes                    1	 (wrE)

Cycle                 4707 ----------------------------------------------------

cycle       4707
Fetch : from Pc                  364 , expanded inst : 76490100000000000030, 
jg $'h0000000000000149

Cycle                 4708 ----------------------------------------------------

cycle       4708
Decode : from Pc                  364 , expanded inst : 76490100000000000030, 
jg $'h0000000000000149
Exec : ppc                  373

Cycle                 4709 ----------------------------------------------------

cycle       4709

Cycle                 4710 ----------------------------------------------------

cycle       4710
Fetch : from Pc                  329 , expanded inst : 50ca0000000000000000, 
mrmovq 'h0000000000000000(%'ha), %'hc

Cycle                 4711 ----------------------------------------------------

cycle       4711
Decode : from Pc                  329 , expanded inst : 50ca0000000000000000, 
mrmovq 'h0000000000000000(%'ha), %'hc
Exec : ppc                  339

Cycle                 4712 ----------------------------------------------------

cycle       4712
Loaded                    5 from                   96
Stat update

Cycle                 4713 ----------------------------------------------------

cycle       4713
On 12, writes                    5	 (wrM)

Cycle                 4714 ----------------------------------------------------

cycle       4714
Fetch : from Pc                  339 , expanded inst : 50da0800000000000000, 
mrmovq 'h0000000000000008(%'ha), %'hd

Cycle                 4715 ----------------------------------------------------

cycle       4715
Decode : from Pc                  339 , expanded inst : 50da0800000000000000, 
mrmovq 'h0000000000000008(%'ha), %'hd
Exec : ppc                  349

Cycle                 4716 ----------------------------------------------------

cycle       4716
Loaded                    6 from                  104
Stat update

Cycle                 4717 ----------------------------------------------------

cycle       4717
On 13, writes                    6	 (wrM)

Cycle                 4718 ----------------------------------------------------

cycle       4718
Fetch : from Pc                  349 , expanded inst : 61dc767f010000000000, 
subq %'hd, %'hc

Cycle                 4719 ----------------------------------------------------

cycle       4719
Decode : from Pc                  349 , expanded inst : 61dc767f010000000000, 
subq %'hd, %'hc
Exec : ppc                  351

Cycle                 4720 ----------------------------------------------------

cycle       4720
On 12, writes 18446744073709551615	 (wrE)

Cycle                 4721 ----------------------------------------------------

cycle       4721
Fetch : from Pc                  351 , expanded inst : 767f0100000000000060, 
jg $'h000000000000017f

Cycle                 4722 ----------------------------------------------------

cycle       4722
Decode : from Pc                  351 , expanded inst : 767f0100000000000060, 
jg $'h000000000000017f
Exec : ppc                  360

Cycle                 4723 ----------------------------------------------------

cycle       4723

Cycle                 4724 ----------------------------------------------------

cycle       4724
Fetch : from Pc                  360 , expanded inst : 60ba6103764901000000, 
addq %'hb, %'ha

Cycle                 4725 ----------------------------------------------------

cycle       4725
Decode : from Pc                  360 , expanded inst : 60ba6103764901000000, 
addq %'hb, %'ha
Exec : ppc                  362

Cycle                 4726 ----------------------------------------------------

cycle       4726
On 10, writes                  104	 (wrE)

Cycle                 4727 ----------------------------------------------------

cycle       4727
Fetch : from Pc                  362 , expanded inst : 61037649010000000000, 
subq %'h0, %'h3

Cycle                 4728 ----------------------------------------------------

cycle       4728
Decode : from Pc                  362 , expanded inst : 61037649010000000000, 
subq %'h0, %'h3
Exec : ppc                  364

Cycle                 4729 ----------------------------------------------------

cycle       4729
On  3, writes                    0	 (wrE)

Cycle                 4730 ----------------------------------------------------

cycle       4730
Fetch : from Pc                  364 , expanded inst : 76490100000000000030, 
jg $'h0000000000000149

Cycle                 4731 ----------------------------------------------------

cycle       4731
Decode : from Pc                  364 , expanded inst : 76490100000000000030, 
jg $'h0000000000000149
Exec : ppc                  373

Cycle                 4732 ----------------------------------------------------

cycle       4732

Cycle                 4733 ----------------------------------------------------

cycle       4733
Fetch : from Pc                  373 , expanded inst : 30f00000000000000000, 
irmovq $'h0000000000000000,  %'h0

Cycle                 4734 ----------------------------------------------------

cycle       4734
Decode : from Pc                  373 , expanded inst : 30f00000000000000000, 
irmovq $'h0000000000000000,  %'h0
Exec : ppc                  383

Cycle                 4735 ----------------------------------------------------

cycle       4735
On  0, writes                    0	 (wrE)

Cycle                 4736 ----------------------------------------------------

cycle       4736
Fetch : from Pc                  383 , expanded inst : c00e00000000000000aa, 
mtc0 %'h0, %'he

Cycle                 4737 ----------------------------------------------------

cycle       4737
Decode : from Pc                  383 , expanded inst : c00e00000000000000aa, 
mtc0 %'h0, %'he
Exec : ppc                  385

Cycle                 4738 ----------------------------------------------------

cycle       4738
On 14, writes                    0	 (wrE)

Cycle                 4739 ----------------------------------------------------
