Warning: file 'memory.vmh' for memory 'dMem' has a gap at addresses 21 to 31.
Warning: file 'memory.vmh' for memory 'dMem' has a gap at addresses 42 to 63.
Warning: file 'memory.vmh' for memory 'dMem' has a gap at addresses 83 to 67108863.
Warning: file 'memory.vmh' for memory 'iMem' has a gap at addresses 21 to 31.
Warning: file 'memory.vmh' for memory 'iMem' has a gap at addresses 42 to 63.
Warning: file 'memory.vmh' for memory 'iMem' has a gap at addresses 83 to 67108863.

Cycle                    0 ----------------------------------------------------

cycle          0
Fetch : from Pc                    0 , expanded inst : 30f50006000000000000, 
irmovq $'h0000000000000600,  %'h5

Cycle                    1 ----------------------------------------------------

cycle          1
Decode : from Pc                    0 , expanded inst : 30f50006000000000000, 
irmovq $'h0000000000000600,  %'h5
Exec : ppc                   10

Cycle                    2 ----------------------------------------------------

cycle          2
On  5, writes                 1536	 (wrE)
Stat update

Cycle                    3 ----------------------------------------------------

cycle          3
Fetch : from Pc                   10 , expanded inst : 30f40006000000000000, 
irmovq $'h0000000000000600,  %'h4

Cycle                    4 ----------------------------------------------------

cycle          4
Decode : from Pc                   10 , expanded inst : 30f40006000000000000, 
irmovq $'h0000000000000600,  %'h4
Exec : ppc                   20

Cycle                    5 ----------------------------------------------------

cycle          5
On  4, writes                 1536	 (wrE)
Stat update

Cycle                    6 ----------------------------------------------------

cycle          6
Fetch : from Pc                   20 , expanded inst : 802d00000000000000c0, 
call 'h000000000000002d

Cycle                    7 ----------------------------------------------------

cycle          7
Decode : from Pc                   20 , expanded inst : 802d00000000000000c0, 
call 'h000000000000002d
Exec : ppc                   29

Cycle                    8 ----------------------------------------------------

cycle          8
Stored                   29 into                 1528

Cycle                    9 ----------------------------------------------------

cycle          9
On  4, writes                 1528	 (wrE)
Stat update

Cycle                   10 ----------------------------------------------------

cycle         10
Fetch : from Pc                   45 , expanded inst : a05f204530f813000000, 
push %'h5

Cycle                   11 ----------------------------------------------------

cycle         11
Decode : from Pc                   45 , expanded inst : a05f204530f813000000, 
push %'h5
Exec : ppc                   47

Cycle                   12 ----------------------------------------------------

cycle         12
Stored                 1536 into                 1520

Cycle                   13 ----------------------------------------------------

cycle         13
On  4, writes                 1520	 (wrE)
Stat update

Cycle                   14 ----------------------------------------------------

cycle         14
Fetch : from Pc                   47 , expanded inst : 204530f8130000000000, 
rrmovq %'h4, %'h5

Cycle                   15 ----------------------------------------------------

cycle         15
Decode : from Pc                   47 , expanded inst : 204530f8130000000000, 
rrmovq %'h4, %'h5
Exec : ppc                   49

Cycle                   16 ----------------------------------------------------

cycle         16
On  5, writes                 1520	 (wrE)
Stat update

Cycle                   17 ----------------------------------------------------

cycle         17
Fetch : from Pc                   49 , expanded inst : 30f81300000000000000, 
irmovq $'h0000000000000013,  %'h8

Cycle                   18 ----------------------------------------------------

cycle         18
Decode : from Pc                   49 , expanded inst : 30f81300000000000000, 
irmovq $'h0000000000000013,  %'h8
Exec : ppc                   59

Cycle                   19 ----------------------------------------------------

cycle         19
On  8, writes                   19	 (wrE)
Stat update

Cycle                   20 ----------------------------------------------------

cycle         20
Fetch : from Pc                   59 , expanded inst : 30f90100000000000000, 
irmovq $'h0000000000000001,  %'h9

Cycle                   21 ----------------------------------------------------

cycle         21
Decode : from Pc                   59 , expanded inst : 30f90100000000000000, 
irmovq $'h0000000000000001,  %'h9
Exec : ppc                   69

Cycle                   22 ----------------------------------------------------

cycle         22
On  9, writes                    1	 (wrE)
Stat update

Cycle                   23 ----------------------------------------------------

cycle         23
Fetch : from Pc                   69 , expanded inst : 30fa0002000000000000, 
irmovq $'h0000000000000200,  %'ha

Cycle                   24 ----------------------------------------------------

cycle         24
Decode : from Pc                   69 , expanded inst : 30fa0002000000000000, 
irmovq $'h0000000000000200,  %'ha
Exec : ppc                   79

Cycle                   25 ----------------------------------------------------

cycle         25
On 10, writes                  512	 (wrE)
Stat update

Cycle                   26 ----------------------------------------------------

cycle         26
Fetch : from Pc                   79 , expanded inst : 20978000010000000000, 
rrmovq %'h9, %'h7

Cycle                   27 ----------------------------------------------------

cycle         27
Decode : from Pc                   79 , expanded inst : 20978000010000000000, 
rrmovq %'h9, %'h7
Exec : ppc                   81

Cycle                   28 ----------------------------------------------------

cycle         28
On  7, writes                    1	 (wrE)
Stat update

Cycle                   29 ----------------------------------------------------

cycle         29
Fetch : from Pc                   81 , expanded inst : 80000100000000000050, 
call 'h0000000000000100

Cycle                   30 ----------------------------------------------------

cycle         30
Decode : from Pc                   81 , expanded inst : 80000100000000000050, 
call 'h0000000000000100
Exec : ppc                   90

Cycle                   31 ----------------------------------------------------

cycle         31
Stored                   90 into                 1512

Cycle                   32 ----------------------------------------------------

cycle         32
On  4, writes                 1512	 (wrE)
Stat update

Cycle                   33 ----------------------------------------------------

cycle         33
Fetch : from Pc                  256 , expanded inst : a05f2045a03fa0cf2073, 
push %'h5

Cycle                   34 ----------------------------------------------------

cycle         34
Decode : from Pc                  256 , expanded inst : a05f2045a03fa0cf2073, 
push %'h5
Exec : ppc                  258

Cycle                   35 ----------------------------------------------------

cycle         35
Stored                 1520 into                 1504

Cycle                   36 ----------------------------------------------------

cycle         36
On  4, writes                 1504	 (wrE)
Stat update

Cycle                   37 ----------------------------------------------------

cycle         37
Fetch : from Pc                  258 , expanded inst : 2045a03fa0cf207330fc, 
rrmovq %'h4, %'h5

Cycle                   38 ----------------------------------------------------

cycle         38
Decode : from Pc                  258 , expanded inst : 2045a03fa0cf207330fc, 
rrmovq %'h4, %'h5
Exec : ppc                  260

Cycle                   39 ----------------------------------------------------

cycle         39
On  5, writes                 1504	 (wrE)
Stat update

Cycle                   40 ----------------------------------------------------

cycle         40
Fetch : from Pc                  260 , expanded inst : a03fa0cf207330fc0100, 
push %'h3

Cycle                   41 ----------------------------------------------------

cycle         41
Decode : from Pc                  260 , expanded inst : a03fa0cf207330fc0100, 
push %'h3
Exec : ppc                  262

Cycle                   42 ----------------------------------------------------

cycle         42
Stored                    0 into                 1496

Cycle                   43 ----------------------------------------------------

cycle         43
On  4, writes                 1496	 (wrE)
Stat update

Cycle                   44 ----------------------------------------------------

cycle         44
Fetch : from Pc                  262 , expanded inst : a0cf207330fc01000000, 
push %'hc

Cycle                   45 ----------------------------------------------------

cycle         45
Decode : from Pc                  262 , expanded inst : a0cf207330fc01000000, 
push %'hc
Exec : ppc                  264

Cycle                   46 ----------------------------------------------------

cycle         46
Stored                    0 into                 1488

Cycle                   47 ----------------------------------------------------

cycle         47
On  4, writes                 1488	 (wrE)
Stat update

Cycle                   48 ----------------------------------------------------

cycle         48
Fetch : from Pc                  264 , expanded inst : 207330fc010000000000, 
rrmovq %'h7, %'h3

Cycle                   49 ----------------------------------------------------

cycle         49
Decode : from Pc                  264 , expanded inst : 207330fc010000000000, 
rrmovq %'h7, %'h3
Exec : ppc                  266

Cycle                   50 ----------------------------------------------------

cycle         50
On  3, writes                    1	 (wrE)
Stat update

Cycle                   51 ----------------------------------------------------

cycle         51
Fetch : from Pc                  266 , expanded inst : 30fc0100000000000000, 
irmovq $'h0000000000000001,  %'hc

Cycle                   52 ----------------------------------------------------

cycle         52
Decode : from Pc                  266 , expanded inst : 30fc0100000000000000, 
irmovq $'h0000000000000001,  %'hc
Exec : ppc                  276

Cycle                   53 ----------------------------------------------------

cycle         53
On 12, writes                    1	 (wrE)
Stat update

Cycle                   54 ----------------------------------------------------

cycle         54
Fetch : from Pc                  276 , expanded inst : 61c37432010000000000, 
subq %'hc, %'h3

Cycle                   55 ----------------------------------------------------

cycle         55
Decode : from Pc                  276 , expanded inst : 61c37432010000000000, 
subq %'hc, %'h3
Exec : ppc                  278

Cycle                   56 ----------------------------------------------------

cycle         56
On  3, writes                    0	 (wrE)
Stat update

Cycle                   57 ----------------------------------------------------

cycle         57
Fetch : from Pc                  278 , expanded inst : 74320100000000000030, 
jne $'h0000000000000132

Cycle                   58 ----------------------------------------------------

cycle         58
Decode : from Pc                  278 , expanded inst : 74320100000000000030, 
jne $'h0000000000000132
Exec : ppc                  287

Cycle                   59 ----------------------------------------------------

cycle         59
Stat update

Cycle                   60 ----------------------------------------------------

cycle         60
Fetch : from Pc                  287 , expanded inst : 30f00100000000000000, 
irmovq $'h0000000000000001,  %'h0

Cycle                   61 ----------------------------------------------------

cycle         61
Decode : from Pc                  287 , expanded inst : 30f00100000000000000, 
irmovq $'h0000000000000001,  %'h0
Exec : ppc                  297

Cycle                   62 ----------------------------------------------------

cycle         62
On  0, writes                    1	 (wrE)
Stat update

Cycle                   63 ----------------------------------------------------

cycle         63
Fetch : from Pc                  297 , expanded inst : 70430100000000000020, 
jmp $'h0000000000000143

Cycle                   64 ----------------------------------------------------

cycle         64
Decode : from Pc                  297 , expanded inst : 70430100000000000020, 
jmp $'h0000000000000143
Exec : ppc                  306

Cycle                   65 ----------------------------------------------------

cycle         65
Stat update

Cycle                   66 ----------------------------------------------------

cycle         66
Fetch : from Pc                  323 , expanded inst : b0cfb03f2054b05f9000, 
pop %'hc

Cycle                   67 ----------------------------------------------------

cycle         67
Decode : from Pc                  323 , expanded inst : b0cfb03f2054b05f9000, 
pop %'hc
Exec : ppc                  325

Cycle                   68 ----------------------------------------------------

cycle         68
Loaded                    0 from                 1488

Cycle                   69 ----------------------------------------------------

cycle         69
On  4, writes                 1496	 (wrE)
On 12, writes                    0	 (wrM)
Stat update

Cycle                   70 ----------------------------------------------------

cycle         70
Fetch : from Pc                  325 , expanded inst : b03f2054b05f90000000, 
pop %'h3

Cycle                   71 ----------------------------------------------------

cycle         71
Decode : from Pc                  325 , expanded inst : b03f2054b05f90000000, 
pop %'h3
Exec : ppc                  327

Cycle                   72 ----------------------------------------------------

cycle         72
Loaded                    0 from                 1496

Cycle                   73 ----------------------------------------------------

cycle         73
On  4, writes                 1504	 (wrE)
On  3, writes                    0	 (wrM)
Stat update

Cycle                   74 ----------------------------------------------------

cycle         74
Fetch : from Pc                  327 , expanded inst : 2054b05f9000000000aa, 
rrmovq %'h5, %'h4

Cycle                   75 ----------------------------------------------------

cycle         75
Decode : from Pc                  327 , expanded inst : 2054b05f9000000000aa, 
rrmovq %'h5, %'h4
Exec : ppc                  329

Cycle                   76 ----------------------------------------------------

cycle         76
On  4, writes                 1504	 (wrE)
Stat update

Cycle                   77 ----------------------------------------------------

cycle         77
Fetch : from Pc                  329 , expanded inst : b05f9000000000aaaaaa, 
pop %'h5

Cycle                   78 ----------------------------------------------------

cycle         78
Decode : from Pc                  329 , expanded inst : b05f9000000000aaaaaa, 
pop %'h5
Exec : ppc                  331

Cycle                   79 ----------------------------------------------------

cycle         79
Loaded                 1520 from                 1504

Cycle                   80 ----------------------------------------------------

cycle         80
On  4, writes                 1512	 (wrE)
On  5, writes                 1520	 (wrM)
Stat update

Cycle                   81 ----------------------------------------------------

cycle         81
Fetch : from Pc                  331 , expanded inst : 9000000000aaaaaaaaaa, 
ret

Cycle                   82 ----------------------------------------------------

cycle         82
Decode : from Pc                  331 , expanded inst : 9000000000aaaaaaaaaa, 
ret
Exec : ppc                  332

Cycle                   83 ----------------------------------------------------

cycle         83
Loaded                   90 from                 1512

Cycle                   84 ----------------------------------------------------

cycle         84
On  4, writes                 1520	 (wrE)
Stat update

Cycle                   85 ----------------------------------------------------

cycle         85
Fetch : from Pc                   90 , expanded inst : 50ba0000000000000000, 
mrmovq 'h0000000000000000(%'ha), %'hb

Cycle                   86 ----------------------------------------------------

cycle         86
Decode : from Pc                   90 , expanded inst : 50ba0000000000000000, 
mrmovq 'h0000000000000000(%'ha), %'hb
Exec : ppc                  100

Cycle                   87 ----------------------------------------------------

cycle         87
Loaded                    1 from                  512

Cycle                   88 ----------------------------------------------------

cycle         88
On 11, writes                    1	 (wrM)
Stat update

Cycle                   89 ----------------------------------------------------

cycle         89
Fetch : from Pc                  100 , expanded inst : 61b07420000000000000, 
subq %'hb, %'h0

Cycle                   90 ----------------------------------------------------

cycle         90
Decode : from Pc                  100 , expanded inst : 61b07420000000000000, 
subq %'hb, %'h0
Exec : ppc                  102

Cycle                   91 ----------------------------------------------------

cycle         91
On  0, writes                    0	 (wrE)
Stat update

Cycle                   92 ----------------------------------------------------

cycle         92
Fetch : from Pc                  102 , expanded inst : 74200000000000000030, 
jne $'h0000000000000020

Cycle                   93 ----------------------------------------------------

cycle         93
Decode : from Pc                  102 , expanded inst : 74200000000000000030, 
jne $'h0000000000000020
Exec : ppc                  111

Cycle                   94 ----------------------------------------------------

cycle         94
Stat update

Cycle                   95 ----------------------------------------------------

cycle         95
Fetch : from Pc                  111 , expanded inst : 30fb0100000000000000, 
irmovq $'h0000000000000001,  %'hb

Cycle                   96 ----------------------------------------------------

cycle         96
Decode : from Pc                  111 , expanded inst : 30fb0100000000000000, 
irmovq $'h0000000000000001,  %'hb
Exec : ppc                  121

Cycle                   97 ----------------------------------------------------

cycle         97
On 11, writes                    1	 (wrE)
Stat update

Cycle                   98 ----------------------------------------------------

cycle         98
Fetch : from Pc                  121 , expanded inst : 60b930fb080000000000, 
addq %'hb, %'h9

Cycle                   99 ----------------------------------------------------

cycle         99
Decode : from Pc                  121 , expanded inst : 60b930fb080000000000, 
addq %'hb, %'h9
Exec : ppc                  123

Cycle                  100 ----------------------------------------------------

cycle        100
On  9, writes                    2	 (wrE)
Stat update

Cycle                  101 ----------------------------------------------------

cycle        101
Fetch : from Pc                  123 , expanded inst : 30fb0800000000000000, 
irmovq $'h0000000000000008,  %'hb

Cycle                  102 ----------------------------------------------------

cycle        102
Decode : from Pc                  123 , expanded inst : 30fb0800000000000000, 
irmovq $'h0000000000000008,  %'hb
Exec : ppc                  133

Cycle                  103 ----------------------------------------------------

cycle        103
On 11, writes                    8	 (wrE)
Stat update

Cycle                  104 ----------------------------------------------------

cycle        104
Fetch : from Pc                  133 , expanded inst : 60ba30fb010000000000, 
addq %'hb, %'ha

Cycle                  105 ----------------------------------------------------

cycle        105
Decode : from Pc                  133 , expanded inst : 60ba30fb010000000000, 
addq %'hb, %'ha
Exec : ppc                  135

Cycle                  106 ----------------------------------------------------

cycle        106
On 10, writes                  520	 (wrE)
Stat update

Cycle                  107 ----------------------------------------------------

cycle        107
Fetch : from Pc                  135 , expanded inst : 30fb0100000000000000, 
irmovq $'h0000000000000001,  %'hb

Cycle                  108 ----------------------------------------------------

cycle        108
Decode : from Pc                  135 , expanded inst : 30fb0100000000000000, 
irmovq $'h0000000000000001,  %'hb
Exec : ppc                  145

Cycle                  109 ----------------------------------------------------

cycle        109
On 11, writes                    1	 (wrE)
Stat update

Cycle                  110 ----------------------------------------------------

cycle        110
Fetch : from Pc                  145 , expanded inst : 61b8744f000000000000, 
subq %'hb, %'h8

Cycle                  111 ----------------------------------------------------

cycle        111
Decode : from Pc                  145 , expanded inst : 61b8744f000000000000, 
subq %'hb, %'h8
Exec : ppc                  147

Cycle                  112 ----------------------------------------------------

cycle        112
On  8, writes                   18	 (wrE)
Stat update

Cycle                  113 ----------------------------------------------------

cycle        113
Fetch : from Pc                  147 , expanded inst : 744f0000000000000020, 
jne $'h000000000000004f

Cycle                  114 ----------------------------------------------------

cycle        114
Decode : from Pc                  147 , expanded inst : 744f0000000000000020, 
jne $'h000000000000004f
Exec : ppc                  156

Cycle                  115 ----------------------------------------------------

cycle        115
Stat update

Cycle                  116 ----------------------------------------------------

cycle        116
Fetch : from Pc                   79 , expanded inst : 20978000010000000000, 
rrmovq %'h9, %'h7

Cycle                  117 ----------------------------------------------------

cycle        117
Decode : from Pc                   79 , expanded inst : 20978000010000000000, 
rrmovq %'h9, %'h7
Exec : ppc                   81

Cycle                  118 ----------------------------------------------------

cycle        118
On  7, writes                    2	 (wrE)
Stat update

Cycle                  119 ----------------------------------------------------

cycle        119
Fetch : from Pc                   81 , expanded inst : 80000100000000000050, 
call 'h0000000000000100

Cycle                  120 ----------------------------------------------------

cycle        120
Decode : from Pc                   81 , expanded inst : 80000100000000000050, 
call 'h0000000000000100
Exec : ppc                   90

Cycle                  121 ----------------------------------------------------

cycle        121
Stored                   90 into                 1512

Cycle                  122 ----------------------------------------------------

cycle        122
On  4, writes                 1512	 (wrE)
Stat update

Cycle                  123 ----------------------------------------------------

cycle        123
Fetch : from Pc                  256 , expanded inst : a05f2045a03fa0cf2073, 
push %'h5

Cycle                  124 ----------------------------------------------------

cycle        124
Decode : from Pc                  256 , expanded inst : a05f2045a03fa0cf2073, 
push %'h5
Exec : ppc                  258

Cycle                  125 ----------------------------------------------------

cycle        125
Stored                 1520 into                 1504

Cycle                  126 ----------------------------------------------------

cycle        126
On  4, writes                 1504	 (wrE)
Stat update

Cycle                  127 ----------------------------------------------------

cycle        127
Fetch : from Pc                  258 , expanded inst : 2045a03fa0cf207330fc, 
rrmovq %'h4, %'h5

Cycle                  128 ----------------------------------------------------

cycle        128
Decode : from Pc                  258 , expanded inst : 2045a03fa0cf207330fc, 
rrmovq %'h4, %'h5
Exec : ppc                  260

Cycle                  129 ----------------------------------------------------

cycle        129
On  5, writes                 1504	 (wrE)
Stat update

Cycle                  130 ----------------------------------------------------

cycle        130
Fetch : from Pc                  260 , expanded inst : a03fa0cf207330fc0100, 
push %'h3

Cycle                  131 ----------------------------------------------------

cycle        131
Decode : from Pc                  260 , expanded inst : a03fa0cf207330fc0100, 
push %'h3
Exec : ppc                  262

Cycle                  132 ----------------------------------------------------

cycle        132
Stored                    0 into                 1496

Cycle                  133 ----------------------------------------------------

cycle        133
On  4, writes                 1496	 (wrE)
Stat update

Cycle                  134 ----------------------------------------------------

cycle        134
Fetch : from Pc                  262 , expanded inst : a0cf207330fc01000000, 
push %'hc

Cycle                  135 ----------------------------------------------------

cycle        135
Decode : from Pc                  262 , expanded inst : a0cf207330fc01000000, 
push %'hc
Exec : ppc                  264

Cycle                  136 ----------------------------------------------------

cycle        136
Stored                    0 into                 1488

Cycle                  137 ----------------------------------------------------

cycle        137
On  4, writes                 1488	 (wrE)
Stat update

Cycle                  138 ----------------------------------------------------

cycle        138
Fetch : from Pc                  264 , expanded inst : 207330fc010000000000, 
rrmovq %'h7, %'h3

Cycle                  139 ----------------------------------------------------

cycle        139
Decode : from Pc                  264 , expanded inst : 207330fc010000000000, 
rrmovq %'h7, %'h3
Exec : ppc                  266

Cycle                  140 ----------------------------------------------------

cycle        140
On  3, writes                    2	 (wrE)
Stat update

Cycle                  141 ----------------------------------------------------

cycle        141
Fetch : from Pc                  266 , expanded inst : 30fc0100000000000000, 
irmovq $'h0000000000000001,  %'hc

Cycle                  142 ----------------------------------------------------

cycle        142
Decode : from Pc                  266 , expanded inst : 30fc0100000000000000, 
irmovq $'h0000000000000001,  %'hc
Exec : ppc                  276

Cycle                  143 ----------------------------------------------------

cycle        143
On 12, writes                    1	 (wrE)
Stat update

Cycle                  144 ----------------------------------------------------

cycle        144
Fetch : from Pc                  276 , expanded inst : 61c37432010000000000, 
subq %'hc, %'h3

Cycle                  145 ----------------------------------------------------

cycle        145
Decode : from Pc                  276 , expanded inst : 61c37432010000000000, 
subq %'hc, %'h3
Exec : ppc                  278

Cycle                  146 ----------------------------------------------------

cycle        146
On  3, writes                    1	 (wrE)
Stat update

Cycle                  147 ----------------------------------------------------

cycle        147
Fetch : from Pc                  278 , expanded inst : 74320100000000000030, 
jne $'h0000000000000132

Cycle                  148 ----------------------------------------------------

cycle        148
Decode : from Pc                  278 , expanded inst : 74320100000000000030, 
jne $'h0000000000000132
Exec : ppc                  287

Cycle                  149 ----------------------------------------------------

cycle        149
Stat update

Cycle                  150 ----------------------------------------------------

cycle        150
Fetch : from Pc                  306 , expanded inst : 203061c7800001000000, 
rrmovq %'h3, %'h0

Cycle                  151 ----------------------------------------------------

cycle        151
Decode : from Pc                  306 , expanded inst : 203061c7800001000000, 
rrmovq %'h3, %'h0
Exec : ppc                  308

Cycle                  152 ----------------------------------------------------

cycle        152
On  0, writes                    1	 (wrE)
Stat update

Cycle                  153 ----------------------------------------------------

cycle        153
Fetch : from Pc                  308 , expanded inst : 61c78000010000000000, 
subq %'hc, %'h7

Cycle                  154 ----------------------------------------------------

cycle        154
Decode : from Pc                  308 , expanded inst : 61c78000010000000000, 
subq %'hc, %'h7
Exec : ppc                  310

Cycle                  155 ----------------------------------------------------

cycle        155
On  7, writes                    1	 (wrE)
Stat update

Cycle                  156 ----------------------------------------------------

cycle        156
Fetch : from Pc                  310 , expanded inst : 80000100000000000060, 
call 'h0000000000000100

Cycle                  157 ----------------------------------------------------

cycle        157
Decode : from Pc                  310 , expanded inst : 80000100000000000060, 
call 'h0000000000000100
Exec : ppc                  319

Cycle                  158 ----------------------------------------------------

cycle        158
Stored                  319 into                 1480

Cycle                  159 ----------------------------------------------------

cycle        159
On  4, writes                 1480	 (wrE)
Stat update

Cycle                  160 ----------------------------------------------------

cycle        160
Fetch : from Pc                  256 , expanded inst : a05f2045a03fa0cf2073, 
push %'h5

Cycle                  161 ----------------------------------------------------

cycle        161
Decode : from Pc                  256 , expanded inst : a05f2045a03fa0cf2073, 
push %'h5
Exec : ppc                  258

Cycle                  162 ----------------------------------------------------

cycle        162
Stored                 1504 into                 1472

Cycle                  163 ----------------------------------------------------

cycle        163
On  4, writes                 1472	 (wrE)
Stat update

Cycle                  164 ----------------------------------------------------

cycle        164
Fetch : from Pc                  258 , expanded inst : 2045a03fa0cf207330fc, 
rrmovq %'h4, %'h5

Cycle                  165 ----------------------------------------------------

cycle        165
Decode : from Pc                  258 , expanded inst : 2045a03fa0cf207330fc, 
rrmovq %'h4, %'h5
Exec : ppc                  260

Cycle                  166 ----------------------------------------------------

cycle        166
On  5, writes                 1472	 (wrE)
Stat update

Cycle                  167 ----------------------------------------------------

cycle        167
Fetch : from Pc                  260 , expanded inst : a03fa0cf207330fc0100, 
push %'h3

Cycle                  168 ----------------------------------------------------

cycle        168
Decode : from Pc                  260 , expanded inst : a03fa0cf207330fc0100, 
push %'h3
Exec : ppc                  262

Cycle                  169 ----------------------------------------------------

cycle        169
Stored                    1 into                 1464

Cycle                  170 ----------------------------------------------------

cycle        170
On  4, writes                 1464	 (wrE)
Stat update

Cycle                  171 ----------------------------------------------------

cycle        171
Fetch : from Pc                  262 , expanded inst : a0cf207330fc01000000, 
push %'hc

Cycle                  172 ----------------------------------------------------

cycle        172
Decode : from Pc                  262 , expanded inst : a0cf207330fc01000000, 
push %'hc
Exec : ppc                  264

Cycle                  173 ----------------------------------------------------

cycle        173
Stored                    1 into                 1456

Cycle                  174 ----------------------------------------------------

cycle        174
On  4, writes                 1456	 (wrE)
Stat update

Cycle                  175 ----------------------------------------------------

cycle        175
Fetch : from Pc                  264 , expanded inst : 207330fc010000000000, 
rrmovq %'h7, %'h3

Cycle                  176 ----------------------------------------------------

cycle        176
Decode : from Pc                  264 , expanded inst : 207330fc010000000000, 
rrmovq %'h7, %'h3
Exec : ppc                  266

Cycle                  177 ----------------------------------------------------

cycle        177
On  3, writes                    1	 (wrE)
Stat update

Cycle                  178 ----------------------------------------------------

cycle        178
Fetch : from Pc                  266 , expanded inst : 30fc0100000000000000, 
irmovq $'h0000000000000001,  %'hc

Cycle                  179 ----------------------------------------------------

cycle        179
Decode : from Pc                  266 , expanded inst : 30fc0100000000000000, 
irmovq $'h0000000000000001,  %'hc
Exec : ppc                  276

Cycle                  180 ----------------------------------------------------

cycle        180
On 12, writes                    1	 (wrE)
Stat update

Cycle                  181 ----------------------------------------------------

cycle        181
Fetch : from Pc                  276 , expanded inst : 61c37432010000000000, 
subq %'hc, %'h3

Cycle                  182 ----------------------------------------------------

cycle        182
Decode : from Pc                  276 , expanded inst : 61c37432010000000000, 
subq %'hc, %'h3
Exec : ppc                  278

Cycle                  183 ----------------------------------------------------

cycle        183
On  3, writes                    0	 (wrE)
Stat update

Cycle                  184 ----------------------------------------------------

cycle        184
Fetch : from Pc                  278 , expanded inst : 74320100000000000030, 
jne $'h0000000000000132

Cycle                  185 ----------------------------------------------------

cycle        185
Decode : from Pc                  278 , expanded inst : 74320100000000000030, 
jne $'h0000000000000132
Exec : ppc                  287

Cycle                  186 ----------------------------------------------------

cycle        186
Stat update

Cycle                  187 ----------------------------------------------------

cycle        187
Fetch : from Pc                  287 , expanded inst : 30f00100000000000000, 
irmovq $'h0000000000000001,  %'h0

Cycle                  188 ----------------------------------------------------

cycle        188
Decode : from Pc                  287 , expanded inst : 30f00100000000000000, 
irmovq $'h0000000000000001,  %'h0
Exec : ppc                  297

Cycle                  189 ----------------------------------------------------

cycle        189
On  0, writes                    1	 (wrE)
Stat update

Cycle                  190 ----------------------------------------------------

cycle        190
Fetch : from Pc                  297 , expanded inst : 70430100000000000020, 
jmp $'h0000000000000143

Cycle                  191 ----------------------------------------------------

cycle        191
Decode : from Pc                  297 , expanded inst : 70430100000000000020, 
jmp $'h0000000000000143
Exec : ppc                  306

Cycle                  192 ----------------------------------------------------

cycle        192
Stat update

Cycle                  193 ----------------------------------------------------

cycle        193
Fetch : from Pc                  323 , expanded inst : b0cfb03f2054b05f9000, 
pop %'hc

Cycle                  194 ----------------------------------------------------

cycle        194
Decode : from Pc                  323 , expanded inst : b0cfb03f2054b05f9000, 
pop %'hc
Exec : ppc                  325

Cycle                  195 ----------------------------------------------------

cycle        195
Loaded                    1 from                 1456

Cycle                  196 ----------------------------------------------------

cycle        196
On  4, writes                 1464	 (wrE)
On 12, writes                    1	 (wrM)
Stat update

Cycle                  197 ----------------------------------------------------

cycle        197
Fetch : from Pc                  325 , expanded inst : b03f2054b05f90000000, 
pop %'h3

Cycle                  198 ----------------------------------------------------

cycle        198
Decode : from Pc                  325 , expanded inst : b03f2054b05f90000000, 
pop %'h3
Exec : ppc                  327

Cycle                  199 ----------------------------------------------------

cycle        199
Loaded                    1 from                 1464

Cycle                  200 ----------------------------------------------------

cycle        200
On  4, writes                 1472	 (wrE)
On  3, writes                    1	 (wrM)
Stat update

Cycle                  201 ----------------------------------------------------

cycle        201
Fetch : from Pc                  327 , expanded inst : 2054b05f9000000000aa, 
rrmovq %'h5, %'h4

Cycle                  202 ----------------------------------------------------

cycle        202
Decode : from Pc                  327 , expanded inst : 2054b05f9000000000aa, 
rrmovq %'h5, %'h4
Exec : ppc                  329

Cycle                  203 ----------------------------------------------------

cycle        203
On  4, writes                 1472	 (wrE)
Stat update

Cycle                  204 ----------------------------------------------------

cycle        204
Fetch : from Pc                  329 , expanded inst : b05f9000000000aaaaaa, 
pop %'h5

Cycle                  205 ----------------------------------------------------

cycle        205
Decode : from Pc                  329 , expanded inst : b05f9000000000aaaaaa, 
pop %'h5
Exec : ppc                  331

Cycle                  206 ----------------------------------------------------

cycle        206
Loaded                 1504 from                 1472

Cycle                  207 ----------------------------------------------------

cycle        207
On  4, writes                 1480	 (wrE)
On  5, writes                 1504	 (wrM)
Stat update

Cycle                  208 ----------------------------------------------------

cycle        208
Fetch : from Pc                  331 , expanded inst : 9000000000aaaaaaaaaa, 
ret

Cycle                  209 ----------------------------------------------------

cycle        209
Decode : from Pc                  331 , expanded inst : 9000000000aaaaaaaaaa, 
ret
Exec : ppc                  332

Cycle                  210 ----------------------------------------------------

cycle        210
Loaded                  319 from                 1480

Cycle                  211 ----------------------------------------------------

cycle        211
On  4, writes                 1488	 (wrE)
Stat update

Cycle                  212 ----------------------------------------------------

cycle        212
Fetch : from Pc                  319 , expanded inst : 600060c0b0cfb03f2054, 
addq %'h0, %'h0

Cycle                  213 ----------------------------------------------------

cycle        213
Decode : from Pc                  319 , expanded inst : 600060c0b0cfb03f2054, 
addq %'h0, %'h0
Exec : ppc                  321

Cycle                  214 ----------------------------------------------------

cycle        214
On  0, writes                    2	 (wrE)
Stat update

Cycle                  215 ----------------------------------------------------

cycle        215
Fetch : from Pc                  321 , expanded inst : 60c0b0cfb03f2054b05f, 
addq %'hc, %'h0

Cycle                  216 ----------------------------------------------------

cycle        216
Decode : from Pc                  321 , expanded inst : 60c0b0cfb03f2054b05f, 
addq %'hc, %'h0
Exec : ppc                  323

Cycle                  217 ----------------------------------------------------

cycle        217
On  0, writes                    3	 (wrE)
Stat update

Cycle                  218 ----------------------------------------------------

cycle        218
Fetch : from Pc                  323 , expanded inst : b0cfb03f2054b05f9000, 
pop %'hc

Cycle                  219 ----------------------------------------------------

cycle        219
Decode : from Pc                  323 , expanded inst : b0cfb03f2054b05f9000, 
pop %'hc
Exec : ppc                  325

Cycle                  220 ----------------------------------------------------

cycle        220
Loaded                    0 from                 1488

Cycle                  221 ----------------------------------------------------

cycle        221
On  4, writes                 1496	 (wrE)
On 12, writes                    0	 (wrM)
Stat update

Cycle                  222 ----------------------------------------------------

cycle        222
Fetch : from Pc                  325 , expanded inst : b03f2054b05f90000000, 
pop %'h3

Cycle                  223 ----------------------------------------------------

cycle        223
Decode : from Pc                  325 , expanded inst : b03f2054b05f90000000, 
pop %'h3
Exec : ppc                  327

Cycle                  224 ----------------------------------------------------

cycle        224
Loaded                    0 from                 1496

Cycle                  225 ----------------------------------------------------

cycle        225
On  4, writes                 1504	 (wrE)
On  3, writes                    0	 (wrM)
Stat update

Cycle                  226 ----------------------------------------------------

cycle        226
Fetch : from Pc                  327 , expanded inst : 2054b05f9000000000aa, 
rrmovq %'h5, %'h4

Cycle                  227 ----------------------------------------------------

cycle        227
Decode : from Pc                  327 , expanded inst : 2054b05f9000000000aa, 
rrmovq %'h5, %'h4
Exec : ppc                  329

Cycle                  228 ----------------------------------------------------

cycle        228
On  4, writes                 1504	 (wrE)
Stat update

Cycle                  229 ----------------------------------------------------

cycle        229
Fetch : from Pc                  329 , expanded inst : b05f9000000000aaaaaa, 
pop %'h5

Cycle                  230 ----------------------------------------------------

cycle        230
Decode : from Pc                  329 , expanded inst : b05f9000000000aaaaaa, 
pop %'h5
Exec : ppc                  331

Cycle                  231 ----------------------------------------------------

cycle        231
Loaded                 1520 from                 1504

Cycle                  232 ----------------------------------------------------

cycle        232
On  4, writes                 1512	 (wrE)
On  5, writes                 1520	 (wrM)
Stat update

Cycle                  233 ----------------------------------------------------

cycle        233
Fetch : from Pc                  331 , expanded inst : 9000000000aaaaaaaaaa, 
ret

Cycle                  234 ----------------------------------------------------

cycle        234
Decode : from Pc                  331 , expanded inst : 9000000000aaaaaaaaaa, 
ret
Exec : ppc                  332

Cycle                  235 ----------------------------------------------------

cycle        235
Loaded                   90 from                 1512

Cycle                  236 ----------------------------------------------------

cycle        236
On  4, writes                 1520	 (wrE)
Stat update

Cycle                  237 ----------------------------------------------------

cycle        237
Fetch : from Pc                   90 , expanded inst : 50ba0000000000000000, 
mrmovq 'h0000000000000000(%'ha), %'hb

Cycle                  238 ----------------------------------------------------

cycle        238
Decode : from Pc                   90 , expanded inst : 50ba0000000000000000, 
mrmovq 'h0000000000000000(%'ha), %'hb
Exec : ppc                  100

Cycle                  239 ----------------------------------------------------

cycle        239
Loaded                    3 from                  520

Cycle                  240 ----------------------------------------------------

cycle        240
On 11, writes                    3	 (wrM)
Stat update

Cycle                  241 ----------------------------------------------------

cycle        241
Fetch : from Pc                  100 , expanded inst : 61b07420000000000000, 
subq %'hb, %'h0

Cycle                  242 ----------------------------------------------------

cycle        242
Decode : from Pc                  100 , expanded inst : 61b07420000000000000, 
subq %'hb, %'h0
Exec : ppc                  102

Cycle                  243 ----------------------------------------------------

cycle        243
On  0, writes                    0	 (wrE)
Stat update

Cycle                  244 ----------------------------------------------------

cycle        244
Fetch : from Pc                  102 , expanded inst : 74200000000000000030, 
jne $'h0000000000000020

Cycle                  245 ----------------------------------------------------

cycle        245
Decode : from Pc                  102 , expanded inst : 74200000000000000030, 
jne $'h0000000000000020
Exec : ppc                  111

Cycle                  246 ----------------------------------------------------

cycle        246
Stat update

Cycle                  247 ----------------------------------------------------

cycle        247
Fetch : from Pc                  111 , expanded inst : 30fb0100000000000000, 
irmovq $'h0000000000000001,  %'hb

Cycle                  248 ----------------------------------------------------

cycle        248
Decode : from Pc                  111 , expanded inst : 30fb0100000000000000, 
irmovq $'h0000000000000001,  %'hb
Exec : ppc                  121

Cycle                  249 ----------------------------------------------------

cycle        249
On 11, writes                    1	 (wrE)
Stat update

Cycle                  250 ----------------------------------------------------

cycle        250
Fetch : from Pc                  121 , expanded inst : 60b930fb080000000000, 
addq %'hb, %'h9

Cycle                  251 ----------------------------------------------------

cycle        251
Decode : from Pc                  121 , expanded inst : 60b930fb080000000000, 
addq %'hb, %'h9
Exec : ppc                  123

Cycle                  252 ----------------------------------------------------

cycle        252
On  9, writes                    3	 (wrE)
Stat update

Cycle                  253 ----------------------------------------------------

cycle        253
Fetch : from Pc                  123 , expanded inst : 30fb0800000000000000, 
irmovq $'h0000000000000008,  %'hb

Cycle                  254 ----------------------------------------------------

cycle        254
Decode : from Pc                  123 , expanded inst : 30fb0800000000000000, 
irmovq $'h0000000000000008,  %'hb
Exec : ppc                  133

Cycle                  255 ----------------------------------------------------

cycle        255
On 11, writes                    8	 (wrE)
Stat update

Cycle                  256 ----------------------------------------------------

cycle        256
Fetch : from Pc                  133 , expanded inst : 60ba30fb010000000000, 
addq %'hb, %'ha

Cycle                  257 ----------------------------------------------------

cycle        257
Decode : from Pc                  133 , expanded inst : 60ba30fb010000000000, 
addq %'hb, %'ha
Exec : ppc                  135

Cycle                  258 ----------------------------------------------------

cycle        258
On 10, writes                  528	 (wrE)
Stat update

Cycle                  259 ----------------------------------------------------

cycle        259
Fetch : from Pc                  135 , expanded inst : 30fb0100000000000000, 
irmovq $'h0000000000000001,  %'hb

Cycle                  260 ----------------------------------------------------

cycle        260
Decode : from Pc                  135 , expanded inst : 30fb0100000000000000, 
irmovq $'h0000000000000001,  %'hb
Exec : ppc                  145

Cycle                  261 ----------------------------------------------------

cycle        261
On 11, writes                    1	 (wrE)
Stat update

Cycle                  262 ----------------------------------------------------

cycle        262
Fetch : from Pc                  145 , expanded inst : 61b8744f000000000000, 
subq %'hb, %'h8

Cycle                  263 ----------------------------------------------------

cycle        263
Decode : from Pc                  145 , expanded inst : 61b8744f000000000000, 
subq %'hb, %'h8
Exec : ppc                  147

Cycle                  264 ----------------------------------------------------

cycle        264
On  8, writes                   17	 (wrE)
Stat update

Cycle                  265 ----------------------------------------------------

cycle        265
Fetch : from Pc                  147 , expanded inst : 744f0000000000000020, 
jne $'h000000000000004f

Cycle                  266 ----------------------------------------------------

cycle        266
Decode : from Pc                  147 , expanded inst : 744f0000000000000020, 
jne $'h000000000000004f
Exec : ppc                  156

Cycle                  267 ----------------------------------------------------

cycle        267
Stat update

Cycle                  268 ----------------------------------------------------

cycle        268
Fetch : from Pc                   79 , expanded inst : 20978000010000000000, 
rrmovq %'h9, %'h7

Cycle                  269 ----------------------------------------------------

cycle        269
Decode : from Pc                   79 , expanded inst : 20978000010000000000, 
rrmovq %'h9, %'h7
Exec : ppc                   81

Cycle                  270 ----------------------------------------------------

cycle        270
On  7, writes                    3	 (wrE)
Stat update

Cycle                  271 ----------------------------------------------------

cycle        271
Fetch : from Pc                   81 , expanded inst : 80000100000000000050, 
call 'h0000000000000100

Cycle                  272 ----------------------------------------------------

cycle        272
Decode : from Pc                   81 , expanded inst : 80000100000000000050, 
call 'h0000000000000100
Exec : ppc                   90

Cycle                  273 ----------------------------------------------------

cycle        273
Stored                   90 into                 1512

Cycle                  274 ----------------------------------------------------

cycle        274
On  4, writes                 1512	 (wrE)
Stat update

Cycle                  275 ----------------------------------------------------

cycle        275
Fetch : from Pc                  256 , expanded inst : a05f2045a03fa0cf2073, 
push %'h5

Cycle                  276 ----------------------------------------------------

cycle        276
Decode : from Pc                  256 , expanded inst : a05f2045a03fa0cf2073, 
push %'h5
Exec : ppc                  258

Cycle                  277 ----------------------------------------------------

cycle        277
Stored                 1520 into                 1504

Cycle                  278 ----------------------------------------------------

cycle        278
On  4, writes                 1504	 (wrE)
Stat update

Cycle                  279 ----------------------------------------------------

cycle        279
Fetch : from Pc                  258 , expanded inst : 2045a03fa0cf207330fc, 
rrmovq %'h4, %'h5

Cycle                  280 ----------------------------------------------------

cycle        280
Decode : from Pc                  258 , expanded inst : 2045a03fa0cf207330fc, 
rrmovq %'h4, %'h5
Exec : ppc                  260

Cycle                  281 ----------------------------------------------------

cycle        281
On  5, writes                 1504	 (wrE)
Stat update

Cycle                  282 ----------------------------------------------------

cycle        282
Fetch : from Pc                  260 , expanded inst : a03fa0cf207330fc0100, 
push %'h3

Cycle                  283 ----------------------------------------------------

cycle        283
Decode : from Pc                  260 , expanded inst : a03fa0cf207330fc0100, 
push %'h3
Exec : ppc                  262

Cycle                  284 ----------------------------------------------------

cycle        284
Stored                    0 into                 1496

Cycle                  285 ----------------------------------------------------

cycle        285
On  4, writes                 1496	 (wrE)
Stat update

Cycle                  286 ----------------------------------------------------

cycle        286
Fetch : from Pc                  262 , expanded inst : a0cf207330fc01000000, 
push %'hc

Cycle                  287 ----------------------------------------------------

cycle        287
Decode : from Pc                  262 , expanded inst : a0cf207330fc01000000, 
push %'hc
Exec : ppc                  264

Cycle                  288 ----------------------------------------------------

cycle        288
Stored                    0 into                 1488

Cycle                  289 ----------------------------------------------------

cycle        289
On  4, writes                 1488	 (wrE)
Stat update

Cycle                  290 ----------------------------------------------------

cycle        290
Fetch : from Pc                  264 , expanded inst : 207330fc010000000000, 
rrmovq %'h7, %'h3

Cycle                  291 ----------------------------------------------------

cycle        291
Decode : from Pc                  264 , expanded inst : 207330fc010000000000, 
rrmovq %'h7, %'h3
Exec : ppc                  266

Cycle                  292 ----------------------------------------------------

cycle        292
On  3, writes                    3	 (wrE)
Stat update

Cycle                  293 ----------------------------------------------------

cycle        293
Fetch : from Pc                  266 , expanded inst : 30fc0100000000000000, 
irmovq $'h0000000000000001,  %'hc

Cycle                  294 ----------------------------------------------------

cycle        294
Decode : from Pc                  266 , expanded inst : 30fc0100000000000000, 
irmovq $'h0000000000000001,  %'hc
Exec : ppc                  276

Cycle                  295 ----------------------------------------------------

cycle        295
On 12, writes                    1	 (wrE)
Stat update

Cycle                  296 ----------------------------------------------------

cycle        296
Fetch : from Pc                  276 , expanded inst : 61c37432010000000000, 
subq %'hc, %'h3

Cycle                  297 ----------------------------------------------------

cycle        297
Decode : from Pc                  276 , expanded inst : 61c37432010000000000, 
subq %'hc, %'h3
Exec : ppc                  278

Cycle                  298 ----------------------------------------------------

cycle        298
On  3, writes                    2	 (wrE)
Stat update

Cycle                  299 ----------------------------------------------------

cycle        299
Fetch : from Pc                  278 , expanded inst : 74320100000000000030, 
jne $'h0000000000000132

Cycle                  300 ----------------------------------------------------

cycle        300
Decode : from Pc                  278 , expanded inst : 74320100000000000030, 
jne $'h0000000000000132
Exec : ppc                  287

Cycle                  301 ----------------------------------------------------

cycle        301
Stat update

Cycle                  302 ----------------------------------------------------

cycle        302
Fetch : from Pc                  306 , expanded inst : 203061c7800001000000, 
rrmovq %'h3, %'h0

Cycle                  303 ----------------------------------------------------

cycle        303
Decode : from Pc                  306 , expanded inst : 203061c7800001000000, 
rrmovq %'h3, %'h0
Exec : ppc                  308

Cycle                  304 ----------------------------------------------------

cycle        304
On  0, writes                    2	 (wrE)
Stat update

Cycle                  305 ----------------------------------------------------

cycle        305
Fetch : from Pc                  308 , expanded inst : 61c78000010000000000, 
subq %'hc, %'h7

Cycle                  306 ----------------------------------------------------

cycle        306
Decode : from Pc                  308 , expanded inst : 61c78000010000000000, 
subq %'hc, %'h7
Exec : ppc                  310

Cycle                  307 ----------------------------------------------------

cycle        307
On  7, writes                    2	 (wrE)
Stat update

Cycle                  308 ----------------------------------------------------

cycle        308
Fetch : from Pc                  310 , expanded inst : 80000100000000000060, 
call 'h0000000000000100

Cycle                  309 ----------------------------------------------------

cycle        309
Decode : from Pc                  310 , expanded inst : 80000100000000000060, 
call 'h0000000000000100
Exec : ppc                  319

Cycle                  310 ----------------------------------------------------

cycle        310
Stored                  319 into                 1480

Cycle                  311 ----------------------------------------------------

cycle        311
On  4, writes                 1480	 (wrE)
Stat update

Cycle                  312 ----------------------------------------------------

cycle        312
Fetch : from Pc                  256 , expanded inst : a05f2045a03fa0cf2073, 
push %'h5

Cycle                  313 ----------------------------------------------------

cycle        313
Decode : from Pc                  256 , expanded inst : a05f2045a03fa0cf2073, 
push %'h5
Exec : ppc                  258

Cycle                  314 ----------------------------------------------------

cycle        314
Stored                 1504 into                 1472

Cycle                  315 ----------------------------------------------------

cycle        315
On  4, writes                 1472	 (wrE)
Stat update

Cycle                  316 ----------------------------------------------------

cycle        316
Fetch : from Pc                  258 , expanded inst : 2045a03fa0cf207330fc, 
rrmovq %'h4, %'h5

Cycle                  317 ----------------------------------------------------

cycle        317
Decode : from Pc                  258 , expanded inst : 2045a03fa0cf207330fc, 
rrmovq %'h4, %'h5
Exec : ppc                  260

Cycle                  318 ----------------------------------------------------

cycle        318
On  5, writes                 1472	 (wrE)
Stat update

Cycle                  319 ----------------------------------------------------

cycle        319
Fetch : from Pc                  260 , expanded inst : a03fa0cf207330fc0100, 
push %'h3

Cycle                  320 ----------------------------------------------------

cycle        320
Decode : from Pc                  260 , expanded inst : a03fa0cf207330fc0100, 
push %'h3
Exec : ppc                  262

Cycle                  321 ----------------------------------------------------

cycle        321
Stored                    2 into                 1464

Cycle                  322 ----------------------------------------------------

cycle        322
On  4, writes                 1464	 (wrE)
Stat update

Cycle                  323 ----------------------------------------------------

cycle        323
Fetch : from Pc                  262 , expanded inst : a0cf207330fc01000000, 
push %'hc

Cycle                  324 ----------------------------------------------------

cycle        324
Decode : from Pc                  262 , expanded inst : a0cf207330fc01000000, 
push %'hc
Exec : ppc                  264

Cycle                  325 ----------------------------------------------------

cycle        325
Stored                    1 into                 1456

Cycle                  326 ----------------------------------------------------

cycle        326
On  4, writes                 1456	 (wrE)
Stat update

Cycle                  327 ----------------------------------------------------

cycle        327
Fetch : from Pc                  264 , expanded inst : 207330fc010000000000, 
rrmovq %'h7, %'h3

Cycle                  328 ----------------------------------------------------

cycle        328
Decode : from Pc                  264 , expanded inst : 207330fc010000000000, 
rrmovq %'h7, %'h3
Exec : ppc                  266

Cycle                  329 ----------------------------------------------------

cycle        329
On  3, writes                    2	 (wrE)
Stat update

Cycle                  330 ----------------------------------------------------

cycle        330
Fetch : from Pc                  266 , expanded inst : 30fc0100000000000000, 
irmovq $'h0000000000000001,  %'hc

Cycle                  331 ----------------------------------------------------

cycle        331
Decode : from Pc                  266 , expanded inst : 30fc0100000000000000, 
irmovq $'h0000000000000001,  %'hc
Exec : ppc                  276

Cycle                  332 ----------------------------------------------------

cycle        332
On 12, writes                    1	 (wrE)
Stat update

Cycle                  333 ----------------------------------------------------

cycle        333
Fetch : from Pc                  276 , expanded inst : 61c37432010000000000, 
subq %'hc, %'h3

Cycle                  334 ----------------------------------------------------

cycle        334
Decode : from Pc                  276 , expanded inst : 61c37432010000000000, 
subq %'hc, %'h3
Exec : ppc                  278

Cycle                  335 ----------------------------------------------------

cycle        335
On  3, writes                    1	 (wrE)
Stat update

Cycle                  336 ----------------------------------------------------

cycle        336
Fetch : from Pc                  278 , expanded inst : 74320100000000000030, 
jne $'h0000000000000132

Cycle                  337 ----------------------------------------------------

cycle        337
Decode : from Pc                  278 , expanded inst : 74320100000000000030, 
jne $'h0000000000000132
Exec : ppc                  287

Cycle                  338 ----------------------------------------------------

cycle        338
Stat update

Cycle                  339 ----------------------------------------------------

cycle        339
Fetch : from Pc                  306 , expanded inst : 203061c7800001000000, 
rrmovq %'h3, %'h0

Cycle                  340 ----------------------------------------------------

cycle        340
Decode : from Pc                  306 , expanded inst : 203061c7800001000000, 
rrmovq %'h3, %'h0
Exec : ppc                  308

Cycle                  341 ----------------------------------------------------

cycle        341
On  0, writes                    1	 (wrE)
Stat update

Cycle                  342 ----------------------------------------------------

cycle        342
Fetch : from Pc                  308 , expanded inst : 61c78000010000000000, 
subq %'hc, %'h7

Cycle                  343 ----------------------------------------------------

cycle        343
Decode : from Pc                  308 , expanded inst : 61c78000010000000000, 
subq %'hc, %'h7
Exec : ppc                  310

Cycle                  344 ----------------------------------------------------

cycle        344
On  7, writes                    1	 (wrE)
Stat update

Cycle                  345 ----------------------------------------------------

cycle        345
Fetch : from Pc                  310 , expanded inst : 80000100000000000060, 
call 'h0000000000000100

Cycle                  346 ----------------------------------------------------

cycle        346
Decode : from Pc                  310 , expanded inst : 80000100000000000060, 
call 'h0000000000000100
Exec : ppc                  319

Cycle                  347 ----------------------------------------------------

cycle        347
Stored                  319 into                 1448

Cycle                  348 ----------------------------------------------------

cycle        348
On  4, writes                 1448	 (wrE)
Stat update

Cycle                  349 ----------------------------------------------------

cycle        349
Fetch : from Pc                  256 , expanded inst : a05f2045a03fa0cf2073, 
push %'h5

Cycle                  350 ----------------------------------------------------

cycle        350
Decode : from Pc                  256 , expanded inst : a05f2045a03fa0cf2073, 
push %'h5
Exec : ppc                  258

Cycle                  351 ----------------------------------------------------

cycle        351
Stored                 1472 into                 1440

Cycle                  352 ----------------------------------------------------

cycle        352
On  4, writes                 1440	 (wrE)
Stat update

Cycle                  353 ----------------------------------------------------

cycle        353
Fetch : from Pc                  258 , expanded inst : 2045a03fa0cf207330fc, 
rrmovq %'h4, %'h5

Cycle                  354 ----------------------------------------------------

cycle        354
Decode : from Pc                  258 , expanded inst : 2045a03fa0cf207330fc, 
rrmovq %'h4, %'h5
Exec : ppc                  260

Cycle                  355 ----------------------------------------------------

cycle        355
On  5, writes                 1440	 (wrE)
Stat update

Cycle                  356 ----------------------------------------------------

cycle        356
Fetch : from Pc                  260 , expanded inst : a03fa0cf207330fc0100, 
push %'h3

Cycle                  357 ----------------------------------------------------

cycle        357
Decode : from Pc                  260 , expanded inst : a03fa0cf207330fc0100, 
push %'h3
Exec : ppc                  262

Cycle                  358 ----------------------------------------------------

cycle        358
Stored                    1 into                 1432

Cycle                  359 ----------------------------------------------------

cycle        359
On  4, writes                 1432	 (wrE)
Stat update

Cycle                  360 ----------------------------------------------------

cycle        360
Fetch : from Pc                  262 , expanded inst : a0cf207330fc01000000, 
push %'hc

Cycle                  361 ----------------------------------------------------

cycle        361
Decode : from Pc                  262 , expanded inst : a0cf207330fc01000000, 
push %'hc
Exec : ppc                  264

Cycle                  362 ----------------------------------------------------

cycle        362
Stored                    1 into                 1424

Cycle                  363 ----------------------------------------------------

cycle        363
On  4, writes                 1424	 (wrE)
Stat update

Cycle                  364 ----------------------------------------------------

cycle        364
Fetch : from Pc                  264 , expanded inst : 207330fc010000000000, 
rrmovq %'h7, %'h3

Cycle                  365 ----------------------------------------------------

cycle        365
Decode : from Pc                  264 , expanded inst : 207330fc010000000000, 
rrmovq %'h7, %'h3
Exec : ppc                  266

Cycle                  366 ----------------------------------------------------

cycle        366
On  3, writes                    1	 (wrE)
Stat update

Cycle                  367 ----------------------------------------------------

cycle        367
Fetch : from Pc                  266 , expanded inst : 30fc0100000000000000, 
irmovq $'h0000000000000001,  %'hc

Cycle                  368 ----------------------------------------------------

cycle        368
Decode : from Pc                  266 , expanded inst : 30fc0100000000000000, 
irmovq $'h0000000000000001,  %'hc
Exec : ppc                  276

Cycle                  369 ----------------------------------------------------

cycle        369
On 12, writes                    1	 (wrE)
Stat update

Cycle                  370 ----------------------------------------------------

cycle        370
Fetch : from Pc                  276 , expanded inst : 61c37432010000000000, 
subq %'hc, %'h3

Cycle                  371 ----------------------------------------------------

cycle        371
Decode : from Pc                  276 , expanded inst : 61c37432010000000000, 
subq %'hc, %'h3
Exec : ppc                  278

Cycle                  372 ----------------------------------------------------

cycle        372
On  3, writes                    0	 (wrE)
Stat update

Cycle                  373 ----------------------------------------------------

cycle        373
Fetch : from Pc                  278 , expanded inst : 74320100000000000030, 
jne $'h0000000000000132

Cycle                  374 ----------------------------------------------------

cycle        374
Decode : from Pc                  278 , expanded inst : 74320100000000000030, 
jne $'h0000000000000132
Exec : ppc                  287

Cycle                  375 ----------------------------------------------------

cycle        375
Stat update

Cycle                  376 ----------------------------------------------------

cycle        376
Fetch : from Pc                  287 , expanded inst : 30f00100000000000000, 
irmovq $'h0000000000000001,  %'h0

Cycle                  377 ----------------------------------------------------

cycle        377
Decode : from Pc                  287 , expanded inst : 30f00100000000000000, 
irmovq $'h0000000000000001,  %'h0
Exec : ppc                  297

Cycle                  378 ----------------------------------------------------

cycle        378
On  0, writes                    1	 (wrE)
Stat update

Cycle                  379 ----------------------------------------------------

cycle        379
Fetch : from Pc                  297 , expanded inst : 70430100000000000020, 
jmp $'h0000000000000143

Cycle                  380 ----------------------------------------------------

cycle        380
Decode : from Pc                  297 , expanded inst : 70430100000000000020, 
jmp $'h0000000000000143
Exec : ppc                  306

Cycle                  381 ----------------------------------------------------

cycle        381
Stat update

Cycle                  382 ----------------------------------------------------

cycle        382
Fetch : from Pc                  323 , expanded inst : b0cfb03f2054b05f9000, 
pop %'hc

Cycle                  383 ----------------------------------------------------

cycle        383
Decode : from Pc                  323 , expanded inst : b0cfb03f2054b05f9000, 
pop %'hc
Exec : ppc                  325

Cycle                  384 ----------------------------------------------------

cycle        384
Loaded                    1 from                 1424

Cycle                  385 ----------------------------------------------------

cycle        385
On  4, writes                 1432	 (wrE)
On 12, writes                    1	 (wrM)
Stat update

Cycle                  386 ----------------------------------------------------

cycle        386
Fetch : from Pc                  325 , expanded inst : b03f2054b05f90000000, 
pop %'h3

Cycle                  387 ----------------------------------------------------

cycle        387
Decode : from Pc                  325 , expanded inst : b03f2054b05f90000000, 
pop %'h3
Exec : ppc                  327

Cycle                  388 ----------------------------------------------------

cycle        388
Loaded                    1 from                 1432

Cycle                  389 ----------------------------------------------------

cycle        389
On  4, writes                 1440	 (wrE)
On  3, writes                    1	 (wrM)
Stat update

Cycle                  390 ----------------------------------------------------

cycle        390
Fetch : from Pc                  327 , expanded inst : 2054b05f9000000000aa, 
rrmovq %'h5, %'h4

Cycle                  391 ----------------------------------------------------

cycle        391
Decode : from Pc                  327 , expanded inst : 2054b05f9000000000aa, 
rrmovq %'h5, %'h4
Exec : ppc                  329

Cycle                  392 ----------------------------------------------------

cycle        392
On  4, writes                 1440	 (wrE)
Stat update

Cycle                  393 ----------------------------------------------------

cycle        393
Fetch : from Pc                  329 , expanded inst : b05f9000000000aaaaaa, 
pop %'h5

Cycle                  394 ----------------------------------------------------

cycle        394
Decode : from Pc                  329 , expanded inst : b05f9000000000aaaaaa, 
pop %'h5
Exec : ppc                  331

Cycle                  395 ----------------------------------------------------

cycle        395
Loaded                 1472 from                 1440

Cycle                  396 ----------------------------------------------------

cycle        396
On  4, writes                 1448	 (wrE)
On  5, writes                 1472	 (wrM)
Stat update

Cycle                  397 ----------------------------------------------------

cycle        397
Fetch : from Pc                  331 , expanded inst : 9000000000aaaaaaaaaa, 
ret

Cycle                  398 ----------------------------------------------------

cycle        398
Decode : from Pc                  331 , expanded inst : 9000000000aaaaaaaaaa, 
ret
Exec : ppc                  332

Cycle                  399 ----------------------------------------------------

cycle        399
Loaded                  319 from                 1448

Cycle                  400 ----------------------------------------------------

cycle        400
On  4, writes                 1456	 (wrE)
Stat update

Cycle                  401 ----------------------------------------------------

cycle        401
Fetch : from Pc                  319 , expanded inst : 600060c0b0cfb03f2054, 
addq %'h0, %'h0

Cycle                  402 ----------------------------------------------------

cycle        402
Decode : from Pc                  319 , expanded inst : 600060c0b0cfb03f2054, 
addq %'h0, %'h0
Exec : ppc                  321

Cycle                  403 ----------------------------------------------------

cycle        403
On  0, writes                    2	 (wrE)
Stat update

Cycle                  404 ----------------------------------------------------

cycle        404
Fetch : from Pc                  321 , expanded inst : 60c0b0cfb03f2054b05f, 
addq %'hc, %'h0

Cycle                  405 ----------------------------------------------------

cycle        405
Decode : from Pc                  321 , expanded inst : 60c0b0cfb03f2054b05f, 
addq %'hc, %'h0
Exec : ppc                  323

Cycle                  406 ----------------------------------------------------

cycle        406
On  0, writes                    3	 (wrE)
Stat update

Cycle                  407 ----------------------------------------------------

cycle        407
Fetch : from Pc                  323 , expanded inst : b0cfb03f2054b05f9000, 
pop %'hc

Cycle                  408 ----------------------------------------------------

cycle        408
Decode : from Pc                  323 , expanded inst : b0cfb03f2054b05f9000, 
pop %'hc
Exec : ppc                  325

Cycle                  409 ----------------------------------------------------

cycle        409
Loaded                    1 from                 1456

Cycle                  410 ----------------------------------------------------

cycle        410
On  4, writes                 1464	 (wrE)
On 12, writes                    1	 (wrM)
Stat update

Cycle                  411 ----------------------------------------------------

cycle        411
Fetch : from Pc                  325 , expanded inst : b03f2054b05f90000000, 
pop %'h3

Cycle                  412 ----------------------------------------------------

cycle        412
Decode : from Pc                  325 , expanded inst : b03f2054b05f90000000, 
pop %'h3
Exec : ppc                  327

Cycle                  413 ----------------------------------------------------

cycle        413
Loaded                    2 from                 1464

Cycle                  414 ----------------------------------------------------

cycle        414
On  4, writes                 1472	 (wrE)
On  3, writes                    2	 (wrM)
Stat update

Cycle                  415 ----------------------------------------------------

cycle        415
Fetch : from Pc                  327 , expanded inst : 2054b05f9000000000aa, 
rrmovq %'h5, %'h4

Cycle                  416 ----------------------------------------------------

cycle        416
Decode : from Pc                  327 , expanded inst : 2054b05f9000000000aa, 
rrmovq %'h5, %'h4
Exec : ppc                  329

Cycle                  417 ----------------------------------------------------

cycle        417
On  4, writes                 1472	 (wrE)
Stat update

Cycle                  418 ----------------------------------------------------

cycle        418
Fetch : from Pc                  329 , expanded inst : b05f9000000000aaaaaa, 
pop %'h5

Cycle                  419 ----------------------------------------------------

cycle        419
Decode : from Pc                  329 , expanded inst : b05f9000000000aaaaaa, 
pop %'h5
Exec : ppc                  331

Cycle                  420 ----------------------------------------------------

cycle        420
Loaded                 1504 from                 1472

Cycle                  421 ----------------------------------------------------

cycle        421
On  4, writes                 1480	 (wrE)
On  5, writes                 1504	 (wrM)
Stat update

[...]

cycle      12246
Fetch : from Pc                  327 , expanded inst : 2054b05f9000000000aa, 
rrmovq %'h5, %'h4

Cycle                12247 ----------------------------------------------------

cycle      12247
Decode : from Pc                  327 , expanded inst : 2054b05f9000000000aa, 
rrmovq %'h5, %'h4
Exec : ppc                  329

Cycle                12248 ----------------------------------------------------

cycle      12248
On  4, writes                 1440	 (wrE)
Stat update

Cycle                12249 ----------------------------------------------------

cycle      12249
Fetch : from Pc                  329 , expanded inst : b05f9000000000aaaaaa, 
pop %'h5

Cycle                12250 ----------------------------------------------------

cycle      12250
Decode : from Pc                  329 , expanded inst : b05f9000000000aaaaaa, 
pop %'h5
Exec : ppc                  331

Cycle                12251 ----------------------------------------------------

cycle      12251
Loaded                 1472 from                 1440

Cycle                12252 ----------------------------------------------------

cycle      12252
On  4, writes                 1448	 (wrE)
On  5, writes                 1472	 (wrM)
Stat update

Cycle                12253 ----------------------------------------------------

cycle      12253
Fetch : from Pc                  331 , expanded inst : 9000000000aaaaaaaaaa, 
ret

Cycle                12254 ----------------------------------------------------

cycle      12254
Decode : from Pc                  331 , expanded inst : 9000000000aaaaaaaaaa, 
ret
Exec : ppc                  332

Cycle                12255 ----------------------------------------------------

cycle      12255
Loaded                  319 from                 1448

Cycle                12256 ----------------------------------------------------

cycle      12256
On  4, writes                 1456	 (wrE)
Stat update

Cycle                12257 ----------------------------------------------------

cycle      12257
Fetch : from Pc                  319 , expanded inst : 600060c0b0cfb03f2054, 
addq %'h0, %'h0

Cycle                12258 ----------------------------------------------------

cycle      12258
Decode : from Pc                  319 , expanded inst : 600060c0b0cfb03f2054, 
addq %'h0, %'h0
Exec : ppc                  321

Cycle                12259 ----------------------------------------------------

cycle      12259
On  0, writes               262142	 (wrE)
Stat update

Cycle                12260 ----------------------------------------------------

cycle      12260
Fetch : from Pc                  321 , expanded inst : 60c0b0cfb03f2054b05f, 
addq %'hc, %'h0

Cycle                12261 ----------------------------------------------------

cycle      12261
Decode : from Pc                  321 , expanded inst : 60c0b0cfb03f2054b05f, 
addq %'hc, %'h0
Exec : ppc                  323

Cycle                12262 ----------------------------------------------------

cycle      12262
On  0, writes               262143	 (wrE)
Stat update

Cycle                12263 ----------------------------------------------------

cycle      12263
Fetch : from Pc                  323 , expanded inst : b0cfb03f2054b05f9000, 
pop %'hc

Cycle                12264 ----------------------------------------------------

cycle      12264
Decode : from Pc                  323 , expanded inst : b0cfb03f2054b05f9000, 
pop %'hc
Exec : ppc                  325

Cycle                12265 ----------------------------------------------------

cycle      12265
Loaded                    1 from                 1456

Cycle                12266 ----------------------------------------------------

cycle      12266
On  4, writes                 1464	 (wrE)
On 12, writes                    1	 (wrM)
Stat update

Cycle                12267 ----------------------------------------------------

cycle      12267
Fetch : from Pc                  325 , expanded inst : b03f2054b05f90000000, 
pop %'h3

Cycle                12268 ----------------------------------------------------

cycle      12268
Decode : from Pc                  325 , expanded inst : b03f2054b05f90000000, 
pop %'h3
Exec : ppc                  327

Cycle                12269 ----------------------------------------------------

cycle      12269
Loaded                   18 from                 1464

Cycle                12270 ----------------------------------------------------

cycle      12270
On  4, writes                 1472	 (wrE)
On  3, writes                   18	 (wrM)
Stat update

Cycle                12271 ----------------------------------------------------

cycle      12271
Fetch : from Pc                  327 , expanded inst : 2054b05f9000000000aa, 
rrmovq %'h5, %'h4

Cycle                12272 ----------------------------------------------------

cycle      12272
Decode : from Pc                  327 , expanded inst : 2054b05f9000000000aa, 
rrmovq %'h5, %'h4
Exec : ppc                  329

Cycle                12273 ----------------------------------------------------

cycle      12273
On  4, writes                 1472	 (wrE)
Stat update

Cycle                12274 ----------------------------------------------------

cycle      12274
Fetch : from Pc                  329 , expanded inst : b05f9000000000aaaaaa, 
pop %'h5

Cycle                12275 ----------------------------------------------------

cycle      12275
Decode : from Pc                  329 , expanded inst : b05f9000000000aaaaaa, 
pop %'h5
Exec : ppc                  331

Cycle                12276 ----------------------------------------------------

cycle      12276
Loaded                 1504 from                 1472

Cycle                12277 ----------------------------------------------------

cycle      12277
On  4, writes                 1480	 (wrE)
On  5, writes                 1504	 (wrM)
Stat update

Cycle                12278 ----------------------------------------------------

cycle      12278
Fetch : from Pc                  331 , expanded inst : 9000000000aaaaaaaaaa, 
ret

Cycle                12279 ----------------------------------------------------

cycle      12279
Decode : from Pc                  331 , expanded inst : 9000000000aaaaaaaaaa, 
ret
Exec : ppc                  332

Cycle                12280 ----------------------------------------------------

cycle      12280
Loaded                  319 from                 1480

Cycle                12281 ----------------------------------------------------

cycle      12281
On  4, writes                 1488	 (wrE)
Stat update

Cycle                12282 ----------------------------------------------------

cycle      12282
Fetch : from Pc                  319 , expanded inst : 600060c0b0cfb03f2054, 
addq %'h0, %'h0

Cycle                12283 ----------------------------------------------------

cycle      12283
Decode : from Pc                  319 , expanded inst : 600060c0b0cfb03f2054, 
addq %'h0, %'h0
Exec : ppc                  321

Cycle                12284 ----------------------------------------------------

cycle      12284
On  0, writes               524286	 (wrE)
Stat update

Cycle                12285 ----------------------------------------------------

cycle      12285
Fetch : from Pc                  321 , expanded inst : 60c0b0cfb03f2054b05f, 
addq %'hc, %'h0

Cycle                12286 ----------------------------------------------------

cycle      12286
Decode : from Pc                  321 , expanded inst : 60c0b0cfb03f2054b05f, 
addq %'hc, %'h0
Exec : ppc                  323

Cycle                12287 ----------------------------------------------------

cycle      12287
On  0, writes               524287	 (wrE)
Stat update

Cycle                12288 ----------------------------------------------------

cycle      12288
Fetch : from Pc                  323 , expanded inst : b0cfb03f2054b05f9000, 
pop %'hc

Cycle                12289 ----------------------------------------------------

cycle      12289
Decode : from Pc                  323 , expanded inst : b0cfb03f2054b05f9000, 
pop %'hc
Exec : ppc                  325

Cycle                12290 ----------------------------------------------------

cycle      12290
Loaded                    0 from                 1488

Cycle                12291 ----------------------------------------------------

cycle      12291
On  4, writes                 1496	 (wrE)
On 12, writes                    0	 (wrM)
Stat update

Cycle                12292 ----------------------------------------------------

cycle      12292
Fetch : from Pc                  325 , expanded inst : b03f2054b05f90000000, 
pop %'h3

Cycle                12293 ----------------------------------------------------

cycle      12293
Decode : from Pc                  325 , expanded inst : b03f2054b05f90000000, 
pop %'h3
Exec : ppc                  327

Cycle                12294 ----------------------------------------------------

cycle      12294
Loaded                    0 from                 1496

Cycle                12295 ----------------------------------------------------

cycle      12295
On  4, writes                 1504	 (wrE)
On  3, writes                    0	 (wrM)
Stat update

Cycle                12296 ----------------------------------------------------

cycle      12296
Fetch : from Pc                  327 , expanded inst : 2054b05f9000000000aa, 
rrmovq %'h5, %'h4

Cycle                12297 ----------------------------------------------------

cycle      12297
Decode : from Pc                  327 , expanded inst : 2054b05f9000000000aa, 
rrmovq %'h5, %'h4
Exec : ppc                  329

Cycle                12298 ----------------------------------------------------

cycle      12298
On  4, writes                 1504	 (wrE)
Stat update

Cycle                12299 ----------------------------------------------------

cycle      12299
Fetch : from Pc                  329 , expanded inst : b05f9000000000aaaaaa, 
pop %'h5

Cycle                12300 ----------------------------------------------------

cycle      12300
Decode : from Pc                  329 , expanded inst : b05f9000000000aaaaaa, 
pop %'h5
Exec : ppc                  331

Cycle                12301 ----------------------------------------------------

cycle      12301
Loaded                 1520 from                 1504

Cycle                12302 ----------------------------------------------------

cycle      12302
On  4, writes                 1512	 (wrE)
On  5, writes                 1520	 (wrM)
Stat update

Cycle                12303 ----------------------------------------------------

cycle      12303
Fetch : from Pc                  331 , expanded inst : 9000000000aaaaaaaaaa, 
ret

Cycle                12304 ----------------------------------------------------

cycle      12304
Decode : from Pc                  331 , expanded inst : 9000000000aaaaaaaaaa, 
ret
Exec : ppc                  332

Cycle                12305 ----------------------------------------------------

cycle      12305
Loaded                   90 from                 1512

Cycle                12306 ----------------------------------------------------

cycle      12306
On  4, writes                 1520	 (wrE)
Stat update

Cycle                12307 ----------------------------------------------------

cycle      12307
Fetch : from Pc                   90 , expanded inst : 50ba0000000000000000, 
mrmovq 'h0000000000000000(%'ha), %'hb

Cycle                12308 ----------------------------------------------------

cycle      12308
Decode : from Pc                   90 , expanded inst : 50ba0000000000000000, 
mrmovq 'h0000000000000000(%'ha), %'hb
Exec : ppc                  100

Cycle                12309 ----------------------------------------------------

cycle      12309
Loaded               524287 from                  656

Cycle                12310 ----------------------------------------------------

cycle      12310
On 11, writes               524287	 (wrM)
Stat update

Cycle                12311 ----------------------------------------------------

cycle      12311
Fetch : from Pc                  100 , expanded inst : 61b07420000000000000, 
subq %'hb, %'h0

Cycle                12312 ----------------------------------------------------

cycle      12312
Decode : from Pc                  100 , expanded inst : 61b07420000000000000, 
subq %'hb, %'h0
Exec : ppc                  102

Cycle                12313 ----------------------------------------------------

cycle      12313
On  0, writes                    0	 (wrE)
Stat update

Cycle                12314 ----------------------------------------------------

cycle      12314
Fetch : from Pc                  102 , expanded inst : 74200000000000000030, 
jne $'h0000000000000020

Cycle                12315 ----------------------------------------------------

cycle      12315
Decode : from Pc                  102 , expanded inst : 74200000000000000030, 
jne $'h0000000000000020
Exec : ppc                  111

Cycle                12316 ----------------------------------------------------

cycle      12316
Stat update

Cycle                12317 ----------------------------------------------------

cycle      12317
Fetch : from Pc                  111 , expanded inst : 30fb0100000000000000, 
irmovq $'h0000000000000001,  %'hb

Cycle                12318 ----------------------------------------------------

cycle      12318
Decode : from Pc                  111 , expanded inst : 30fb0100000000000000, 
irmovq $'h0000000000000001,  %'hb
Exec : ppc                  121

Cycle                12319 ----------------------------------------------------

cycle      12319
On 11, writes                    1	 (wrE)
Stat update

Cycle                12320 ----------------------------------------------------

cycle      12320
Fetch : from Pc                  121 , expanded inst : 60b930fb080000000000, 
addq %'hb, %'h9

Cycle                12321 ----------------------------------------------------

cycle      12321
Decode : from Pc                  121 , expanded inst : 60b930fb080000000000, 
addq %'hb, %'h9
Exec : ppc                  123

Cycle                12322 ----------------------------------------------------

cycle      12322
On  9, writes                   20	 (wrE)
Stat update

Cycle                12323 ----------------------------------------------------

cycle      12323
Fetch : from Pc                  123 , expanded inst : 30fb0800000000000000, 
irmovq $'h0000000000000008,  %'hb

Cycle                12324 ----------------------------------------------------

cycle      12324
Decode : from Pc                  123 , expanded inst : 30fb0800000000000000, 
irmovq $'h0000000000000008,  %'hb
Exec : ppc                  133

Cycle                12325 ----------------------------------------------------

cycle      12325
On 11, writes                    8	 (wrE)
Stat update

Cycle                12326 ----------------------------------------------------

cycle      12326
Fetch : from Pc                  133 , expanded inst : 60ba30fb010000000000, 
addq %'hb, %'ha

Cycle                12327 ----------------------------------------------------

cycle      12327
Decode : from Pc                  133 , expanded inst : 60ba30fb010000000000, 
addq %'hb, %'ha
Exec : ppc                  135

Cycle                12328 ----------------------------------------------------

cycle      12328
On 10, writes                  664	 (wrE)
Stat update

Cycle                12329 ----------------------------------------------------

cycle      12329
Fetch : from Pc                  135 , expanded inst : 30fb0100000000000000, 
irmovq $'h0000000000000001,  %'hb

Cycle                12330 ----------------------------------------------------

cycle      12330
Decode : from Pc                  135 , expanded inst : 30fb0100000000000000, 
irmovq $'h0000000000000001,  %'hb
Exec : ppc                  145

Cycle                12331 ----------------------------------------------------

cycle      12331
On 11, writes                    1	 (wrE)
Stat update

Cycle                12332 ----------------------------------------------------

cycle      12332
Fetch : from Pc                  145 , expanded inst : 61b8744f000000000000, 
subq %'hb, %'h8

Cycle                12333 ----------------------------------------------------

cycle      12333
Decode : from Pc                  145 , expanded inst : 61b8744f000000000000, 
subq %'hb, %'h8
Exec : ppc                  147

Cycle                12334 ----------------------------------------------------

cycle      12334
On  8, writes                    0	 (wrE)
Stat update

Cycle                12335 ----------------------------------------------------

cycle      12335
Fetch : from Pc                  147 , expanded inst : 744f0000000000000020, 
jne $'h000000000000004f

Cycle                12336 ----------------------------------------------------

cycle      12336
Decode : from Pc                  147 , expanded inst : 744f0000000000000020, 
jne $'h000000000000004f
Exec : ppc                  156

Cycle                12337 ----------------------------------------------------

cycle      12337
Stat update

Cycle                12338 ----------------------------------------------------

cycle      12338
Fetch : from Pc                  156 , expanded inst : 2054b05f900000000000, 
rrmovq %'h5, %'h4

Cycle                12339 ----------------------------------------------------

cycle      12339
Decode : from Pc                  156 , expanded inst : 2054b05f900000000000, 
rrmovq %'h5, %'h4
Exec : ppc                  158

Cycle                12340 ----------------------------------------------------

cycle      12340
On  4, writes                 1520	 (wrE)
Stat update

Cycle                12341 ----------------------------------------------------

cycle      12341
Fetch : from Pc                  158 , expanded inst : b05f9000000000000000, 
pop %'h5

Cycle                12342 ----------------------------------------------------

cycle      12342
Decode : from Pc                  158 , expanded inst : b05f9000000000000000, 
pop %'h5
Exec : ppc                  160

Cycle                12343 ----------------------------------------------------

cycle      12343
Loaded                 1536 from                 1520

Cycle                12344 ----------------------------------------------------

cycle      12344
On  4, writes                 1528	 (wrE)
On  5, writes                 1536	 (wrM)
Stat update

Cycle                12345 ----------------------------------------------------

cycle      12345
Fetch : from Pc                  160 , expanded inst : 9000000000000000aaaa, 
ret

Cycle                12346 ----------------------------------------------------

cycle      12346
Decode : from Pc                  160 , expanded inst : 9000000000000000aaaa, 
ret
Exec : ppc                  161

Cycle                12347 ----------------------------------------------------

cycle      12347
Loaded                   29 from                 1528

Cycle                12348 ----------------------------------------------------

cycle      12348
On  4, writes                 1536	 (wrE)
Stat update

Cycle                12349 ----------------------------------------------------

cycle      12349
Fetch : from Pc                   29 , expanded inst : c00e0030f0ffffffffff, 
mtc0 %'h0, %'he

Cycle                12350 ----------------------------------------------------

cycle      12350
Decode : from Pc                   29 , expanded inst : c00e0030f0ffffffffff, 
mtc0 %'h0, %'he
Exec : ppc                   31

Cycle                12351 ----------------------------------------------------

cycle      12351
On 14, writes                    0	 (wrE)
Stat update

Cycle                12352 ----------------------------------------------------
